version 2
run CSMA-0-20161013-14:27:51-18583
attr beaconInterval 10s
attr configname CSMA
attr datetime 20161013-14:27:51
attr experiment CSMA
attr inifile simulations/omnetpp.ini
attr iterationvars "$packetLength=76B, $sendInt=2, $beaconInterval=10s, $0=10s/2, $1=3 * 10s"
attr iterationvars2 "$packetLength=76B, $sendInt=2, $beaconInterval=10s, $0=10s/2, $1=3 * 10s, $repetition=0"
attr measurement "$packetLength=76B, $sendInt=2, $beaconInterval=10s, $0=10s/2, $1=3 * 10s"
attr network multi_gateway.Net802154MultiGateway
attr packetLength 76B
attr processid 18583
attr repetition 0
attr replication #0
attr resultdir ../results
attr runnumber 0
attr seedset 0
attr sendInt 2
param **.configurator.addStaticRoutes false
param **.dumpRoutes false
param **.dumpTopology false
param **.host[*].**.gpsr.beaconInterval "${beaconInterval = 10s}"
param **.host[*].**.gpsr.maxJitter ${$beaconInterval/2}
param **.host[*].**.gpsr.neighborValidityInterval "${3 * $beaconInterval}"
param **.host[*].**.gpsr.positionByteLength "2 B"
param **.host[*].**.gpsr.routingStrategy "\"StraightestPath\""
param **.host[*].**.trafficgen.continueSendingDummyPackets true
param **.host[*].**.trafficgen.coolDownDuration 15s
param **.host[*].**.trafficgen.destAddresses "\"host[0].wrappedHost(modulepath)\""
param **.host[*].**.trafficgen.packetLength "${packetLength = 76B}"
param **.host[*].**.trafficgen.sendInterval "exponential(${sendInt=1.0..2.5 step 0.25}s)"
param **.host[*].**.trafficgen.startTime 30s
param **.host[*].**.trafficgen.warmUpDuration 190s
param **.host[*].**.wlan[*].mac.queueLength 30
param **.host[*].**.wlan[*].macType "\"Ieee802154NarrowbandMac\""
param **.host[*].**.wlan[*].radio.receiver.minInterferencePower "-100 dBm"
param **.host[*].hostType "\"SimpleHost\""
param **.host[*].mobilityType "\"StaticConcentricWrappingMobility\""
param **.host[0].**.trafficgen.numPackets 0
param **.host[1..].**.trafficgen.numPackets 100
param **.numHosts 62
param **.pathLoss.alpha 2.8
param **.pathLossType "\"RicianFading\""
param **.radioMedium.rangeFilter "\"interferenceRange\""
param **.routingTable.addressType "\"modulepath\""
param **.routingTableType "\"GenericRoutingTable\""

vector 9  Net802154MultiGateway.host[0].wrappedHost.trafficgen  sentDummyPk:vector(packetBytes)  ETV
attr interpolationmode  none
attr source  sentDummyPk
attr title  "dummy packets sent, vector(packetBytes)"
vector 23  Net802154MultiGateway.host[1].wrappedHost.trafficgen  sentDummyPk:vector(packetBytes)  ETV
attr interpolationmode  none
attr source  sentDummyPk
attr title  "dummy packets sent, vector(packetBytes)"
vector 37  Net802154MultiGateway.host[2].wrappedHost.trafficgen  sentDummyPk:vector(packetBytes)  ETV
attr interpolationmode  none
attr source  sentDummyPk
attr title  "dummy packets sent, vector(packetBytes)"
vector 51  Net802154MultiGateway.host[3].wrappedHost.trafficgen  sentDummyPk:vector(packetBytes)  ETV
attr interpolationmode  none
attr source  sentDummyPk
attr title  "dummy packets sent, vector(packetBytes)"
vector 65  Net802154MultiGateway.host[4].wrappedHost.trafficgen  sentDummyPk:vector(packetBytes)  ETV
attr interpolationmode  none
attr source  sentDummyPk
attr title  "dummy packets sent, vector(packetBytes)"
vector 79  Net802154MultiGateway.host[5].wrappedHost.trafficgen  sentDummyPk:vector(packetBytes)  ETV
attr interpolationmode  none
attr source  sentDummyPk
attr title  "dummy packets sent, vector(packetBytes)"
vector 93  Net802154MultiGateway.host[6].wrappedHost.trafficgen  sentDummyPk:vector(packetBytes)  ETV
attr interpolationmode  none
attr source  sentDummyPk
attr title  "dummy packets sent, vector(packetBytes)"
vector 107  Net802154MultiGateway.host[7].wrappedHost.trafficgen  sentDummyPk:vector(packetBytes)  ETV
attr interpolationmode  none
attr source  sentDummyPk
attr title  "dummy packets sent, vector(packetBytes)"
vector 121  Net802154MultiGateway.host[8].wrappedHost.trafficgen  sentDummyPk:vector(packetBytes)  ETV
attr interpolationmode  none
attr source  sentDummyPk
attr title  "dummy packets sent, vector(packetBytes)"
vector 135  Net802154MultiGateway.host[9].wrappedHost.trafficgen  sentDummyPk:vector(packetBytes)  ETV
attr interpolationmode  none
attr source  sentDummyPk
attr title  "dummy packets sent, vector(packetBytes)"
vector 149  Net802154MultiGateway.host[10].wrappedHost.trafficgen  sentDummyPk:vector(packetBytes)  ETV
attr interpolationmode  none
attr source  sentDummyPk
attr title  "dummy packets sent, vector(packetBytes)"
vector 163  Net802154MultiGateway.host[11].wrappedHost.trafficgen  sentDummyPk:vector(packetBytes)  ETV
attr interpolationmode  none
attr source  sentDummyPk
attr title  "dummy packets sent, vector(packetBytes)"
vector 177  Net802154MultiGateway.host[12].wrappedHost.trafficgen  sentDummyPk:vector(packetBytes)  ETV
attr interpolationmode  none
attr source  sentDummyPk
attr title  "dummy packets sent, vector(packetBytes)"
vector 191  Net802154MultiGateway.host[13].wrappedHost.trafficgen  sentDummyPk:vector(packetBytes)  ETV
attr interpolationmode  none
attr source  sentDummyPk
attr title  "dummy packets sent, vector(packetBytes)"
vector 205  Net802154MultiGateway.host[14].wrappedHost.trafficgen  sentDummyPk:vector(packetBytes)  ETV
attr interpolationmode  none
attr source  sentDummyPk
attr title  "dummy packets sent, vector(packetBytes)"
vector 219  Net802154MultiGateway.host[15].wrappedHost.trafficgen  sentDummyPk:vector(packetBytes)  ETV
attr interpolationmode  none
attr source  sentDummyPk
attr title  "dummy packets sent, vector(packetBytes)"
vector 233  Net802154MultiGateway.host[16].wrappedHost.trafficgen  sentDummyPk:vector(packetBytes)  ETV
attr interpolationmode  none
attr source  sentDummyPk
attr title  "dummy packets sent, vector(packetBytes)"
vector 247  Net802154MultiGateway.host[17].wrappedHost.trafficgen  sentDummyPk:vector(packetBytes)  ETV
attr interpolationmode  none
attr source  sentDummyPk
attr title  "dummy packets sent, vector(packetBytes)"
vector 261  Net802154MultiGateway.host[18].wrappedHost.trafficgen  sentDummyPk:vector(packetBytes)  ETV
attr interpolationmode  none
attr source  sentDummyPk
attr title  "dummy packets sent, vector(packetBytes)"
vector 275  Net802154MultiGateway.host[19].wrappedHost.trafficgen  sentDummyPk:vector(packetBytes)  ETV
attr interpolationmode  none
attr source  sentDummyPk
attr title  "dummy packets sent, vector(packetBytes)"
vector 289  Net802154MultiGateway.host[20].wrappedHost.trafficgen  sentDummyPk:vector(packetBytes)  ETV
attr interpolationmode  none
attr source  sentDummyPk
attr title  "dummy packets sent, vector(packetBytes)"
vector 303  Net802154MultiGateway.host[21].wrappedHost.trafficgen  sentDummyPk:vector(packetBytes)  ETV
attr interpolationmode  none
attr source  sentDummyPk
attr title  "dummy packets sent, vector(packetBytes)"
vector 317  Net802154MultiGateway.host[22].wrappedHost.trafficgen  sentDummyPk:vector(packetBytes)  ETV
attr interpolationmode  none
attr source  sentDummyPk
attr title  "dummy packets sent, vector(packetBytes)"
vector 331  Net802154MultiGateway.host[23].wrappedHost.trafficgen  sentDummyPk:vector(packetBytes)  ETV
attr interpolationmode  none
attr source  sentDummyPk
attr title  "dummy packets sent, vector(packetBytes)"
vector 345  Net802154MultiGateway.host[24].wrappedHost.trafficgen  sentDummyPk:vector(packetBytes)  ETV
attr interpolationmode  none
attr source  sentDummyPk
attr title  "dummy packets sent, vector(packetBytes)"
vector 359  Net802154MultiGateway.host[25].wrappedHost.trafficgen  sentDummyPk:vector(packetBytes)  ETV
attr interpolationmode  none
attr source  sentDummyPk
attr title  "dummy packets sent, vector(packetBytes)"
vector 373  Net802154MultiGateway.host[26].wrappedHost.trafficgen  sentDummyPk:vector(packetBytes)  ETV
attr interpolationmode  none
attr source  sentDummyPk
attr title  "dummy packets sent, vector(packetBytes)"
vector 387  Net802154MultiGateway.host[27].wrappedHost.trafficgen  sentDummyPk:vector(packetBytes)  ETV
attr interpolationmode  none
attr source  sentDummyPk
attr title  "dummy packets sent, vector(packetBytes)"
vector 401  Net802154MultiGateway.host[28].wrappedHost.trafficgen  sentDummyPk:vector(packetBytes)  ETV
attr interpolationmode  none
attr source  sentDummyPk
attr title  "dummy packets sent, vector(packetBytes)"
vector 415  Net802154MultiGateway.host[29].wrappedHost.trafficgen  sentDummyPk:vector(packetBytes)  ETV
attr interpolationmode  none
attr source  sentDummyPk
attr title  "dummy packets sent, vector(packetBytes)"
vector 429  Net802154MultiGateway.host[30].wrappedHost.trafficgen  sentDummyPk:vector(packetBytes)  ETV
attr interpolationmode  none
attr source  sentDummyPk
attr title  "dummy packets sent, vector(packetBytes)"
vector 443  Net802154MultiGateway.host[31].wrappedHost.trafficgen  sentDummyPk:vector(packetBytes)  ETV
attr interpolationmode  none
attr source  sentDummyPk
attr title  "dummy packets sent, vector(packetBytes)"
vector 457  Net802154MultiGateway.host[32].wrappedHost.trafficgen  sentDummyPk:vector(packetBytes)  ETV
attr interpolationmode  none
attr source  sentDummyPk
attr title  "dummy packets sent, vector(packetBytes)"
vector 471  Net802154MultiGateway.host[33].wrappedHost.trafficgen  sentDummyPk:vector(packetBytes)  ETV
attr interpolationmode  none
attr source  sentDummyPk
attr title  "dummy packets sent, vector(packetBytes)"
vector 485  Net802154MultiGateway.host[34].wrappedHost.trafficgen  sentDummyPk:vector(packetBytes)  ETV
attr interpolationmode  none
attr source  sentDummyPk
attr title  "dummy packets sent, vector(packetBytes)"
vector 499  Net802154MultiGateway.host[35].wrappedHost.trafficgen  sentDummyPk:vector(packetBytes)  ETV
attr interpolationmode  none
attr source  sentDummyPk
attr title  "dummy packets sent, vector(packetBytes)"
vector 513  Net802154MultiGateway.host[36].wrappedHost.trafficgen  sentDummyPk:vector(packetBytes)  ETV
attr interpolationmode  none
attr source  sentDummyPk
attr title  "dummy packets sent, vector(packetBytes)"
vector 527  Net802154MultiGateway.host[37].wrappedHost.trafficgen  sentDummyPk:vector(packetBytes)  ETV
attr interpolationmode  none
attr source  sentDummyPk
attr title  "dummy packets sent, vector(packetBytes)"
vector 541  Net802154MultiGateway.host[38].wrappedHost.trafficgen  sentDummyPk:vector(packetBytes)  ETV
attr interpolationmode  none
attr source  sentDummyPk
attr title  "dummy packets sent, vector(packetBytes)"
vector 555  Net802154MultiGateway.host[39].wrappedHost.trafficgen  sentDummyPk:vector(packetBytes)  ETV
attr interpolationmode  none
attr source  sentDummyPk
attr title  "dummy packets sent, vector(packetBytes)"
vector 569  Net802154MultiGateway.host[40].wrappedHost.trafficgen  sentDummyPk:vector(packetBytes)  ETV
attr interpolationmode  none
attr source  sentDummyPk
attr title  "dummy packets sent, vector(packetBytes)"
vector 583  Net802154MultiGateway.host[41].wrappedHost.trafficgen  sentDummyPk:vector(packetBytes)  ETV
attr interpolationmode  none
attr source  sentDummyPk
attr title  "dummy packets sent, vector(packetBytes)"
vector 597  Net802154MultiGateway.host[42].wrappedHost.trafficgen  sentDummyPk:vector(packetBytes)  ETV
attr interpolationmode  none
attr source  sentDummyPk
attr title  "dummy packets sent, vector(packetBytes)"
vector 611  Net802154MultiGateway.host[43].wrappedHost.trafficgen  sentDummyPk:vector(packetBytes)  ETV
attr interpolationmode  none
attr source  sentDummyPk
attr title  "dummy packets sent, vector(packetBytes)"
vector 625  Net802154MultiGateway.host[44].wrappedHost.trafficgen  sentDummyPk:vector(packetBytes)  ETV
attr interpolationmode  none
attr source  sentDummyPk
attr title  "dummy packets sent, vector(packetBytes)"
vector 639  Net802154MultiGateway.host[45].wrappedHost.trafficgen  sentDummyPk:vector(packetBytes)  ETV
attr interpolationmode  none
attr source  sentDummyPk
attr title  "dummy packets sent, vector(packetBytes)"
vector 653  Net802154MultiGateway.host[46].wrappedHost.trafficgen  sentDummyPk:vector(packetBytes)  ETV
attr interpolationmode  none
attr source  sentDummyPk
attr title  "dummy packets sent, vector(packetBytes)"
vector 667  Net802154MultiGateway.host[47].wrappedHost.trafficgen  sentDummyPk:vector(packetBytes)  ETV
attr interpolationmode  none
attr source  sentDummyPk
attr title  "dummy packets sent, vector(packetBytes)"
vector 681  Net802154MultiGateway.host[48].wrappedHost.trafficgen  sentDummyPk:vector(packetBytes)  ETV
attr interpolationmode  none
attr source  sentDummyPk
attr title  "dummy packets sent, vector(packetBytes)"
vector 695  Net802154MultiGateway.host[49].wrappedHost.trafficgen  sentDummyPk:vector(packetBytes)  ETV
attr interpolationmode  none
attr source  sentDummyPk
attr title  "dummy packets sent, vector(packetBytes)"
vector 709  Net802154MultiGateway.host[50].wrappedHost.trafficgen  sentDummyPk:vector(packetBytes)  ETV
attr interpolationmode  none
attr source  sentDummyPk
attr title  "dummy packets sent, vector(packetBytes)"
vector 723  Net802154MultiGateway.host[51].wrappedHost.trafficgen  sentDummyPk:vector(packetBytes)  ETV
attr interpolationmode  none
attr source  sentDummyPk
attr title  "dummy packets sent, vector(packetBytes)"
vector 737  Net802154MultiGateway.host[52].wrappedHost.trafficgen  sentDummyPk:vector(packetBytes)  ETV
attr interpolationmode  none
attr source  sentDummyPk
attr title  "dummy packets sent, vector(packetBytes)"
vector 751  Net802154MultiGateway.host[53].wrappedHost.trafficgen  sentDummyPk:vector(packetBytes)  ETV
attr interpolationmode  none
attr source  sentDummyPk
attr title  "dummy packets sent, vector(packetBytes)"
vector 765  Net802154MultiGateway.host[54].wrappedHost.trafficgen  sentDummyPk:vector(packetBytes)  ETV
attr interpolationmode  none
attr source  sentDummyPk
attr title  "dummy packets sent, vector(packetBytes)"
vector 779  Net802154MultiGateway.host[55].wrappedHost.trafficgen  sentDummyPk:vector(packetBytes)  ETV
attr interpolationmode  none
attr source  sentDummyPk
attr title  "dummy packets sent, vector(packetBytes)"
vector 793  Net802154MultiGateway.host[56].wrappedHost.trafficgen  sentDummyPk:vector(packetBytes)  ETV
attr interpolationmode  none
attr source  sentDummyPk
attr title  "dummy packets sent, vector(packetBytes)"
vector 807  Net802154MultiGateway.host[57].wrappedHost.trafficgen  sentDummyPk:vector(packetBytes)  ETV
attr interpolationmode  none
attr source  sentDummyPk
attr title  "dummy packets sent, vector(packetBytes)"
vector 821  Net802154MultiGateway.host[58].wrappedHost.trafficgen  sentDummyPk:vector(packetBytes)  ETV
attr interpolationmode  none
attr source  sentDummyPk
attr title  "dummy packets sent, vector(packetBytes)"
vector 835  Net802154MultiGateway.host[59].wrappedHost.trafficgen  sentDummyPk:vector(packetBytes)  ETV
attr interpolationmode  none
attr source  sentDummyPk
attr title  "dummy packets sent, vector(packetBytes)"
vector 849  Net802154MultiGateway.host[60].wrappedHost.trafficgen  sentDummyPk:vector(packetBytes)  ETV
attr interpolationmode  none
attr source  sentDummyPk
attr title  "dummy packets sent, vector(packetBytes)"
vector 863  Net802154MultiGateway.host[61].wrappedHost.trafficgen  sentDummyPk:vector(packetBytes)  ETV
attr interpolationmode  none
attr source  sentDummyPk
attr title  "dummy packets sent, vector(packetBytes)"
vector 384  Net802154MultiGateway.host[27].wrappedHost.trafficgen  sentPk:vector(packetBytes)  ETV
attr interpolationmode  none
attr source  sentPk
attr title  "packets sent, vector(packetBytes)"
vector 388  Net802154MultiGateway.host[27].wrappedHost.trafficgen  PRR:vector  ETV
attr interpolationmode  none
attr source  count(sinkRcvdPk)/count(sentPk)
attr title  "PRR, vector"
vector 386  Net802154MultiGateway.host[27].wrappedHost.trafficgen  sinkRcvdPk:vector(packetBytes)  ETV
attr interpolationmode  none
attr source  sinkRcvdPk
attr title  "own packets received by sink, vector(packetBytes)"
vector 5  Net802154MultiGateway.host[0].wrappedHost.trafficgen  rcvdPk:vector(packetBytes)  ETV
attr interpolationmode  none
attr source  rcvdPk
attr title  "packets received, vector(packetBytes)"
vector 7  Net802154MultiGateway.host[0].wrappedHost.trafficgen  endToEndDelay:vector  ETV
attr interpolationmode  none
attr source  messageAge(rcvdPk)
attr title  "end-to-end delay, vector"
attr unit  s
vector 720  Net802154MultiGateway.host[51].wrappedHost.trafficgen  sentPk:vector(packetBytes)  ETV
attr interpolationmode  none
attr source  sentPk
attr title  "packets sent, vector(packetBytes)"
vector 724  Net802154MultiGateway.host[51].wrappedHost.trafficgen  PRR:vector  ETV
attr interpolationmode  none
attr source  count(sinkRcvdPk)/count(sentPk)
attr title  "PRR, vector"
vector 664  Net802154MultiGateway.host[47].wrappedHost.trafficgen  sentPk:vector(packetBytes)  ETV
attr interpolationmode  none
attr source  sentPk
attr title  "packets sent, vector(packetBytes)"
vector 668  Net802154MultiGateway.host[47].wrappedHost.trafficgen  PRR:vector  ETV
attr interpolationmode  none
attr source  count(sinkRcvdPk)/count(sentPk)
attr title  "PRR, vector"
vector 468  Net802154MultiGateway.host[33].wrappedHost.trafficgen  sentPk:vector(packetBytes)  ETV
attr interpolationmode  none
attr source  sentPk
attr title  "packets sent, vector(packetBytes)"
vector 472  Net802154MultiGateway.host[33].wrappedHost.trafficgen  PRR:vector  ETV
attr interpolationmode  none
attr source  count(sinkRcvdPk)/count(sentPk)
attr title  "PRR, vector"
vector 272  Net802154MultiGateway.host[19].wrappedHost.trafficgen  sentPk:vector(packetBytes)  ETV
attr interpolationmode  none
attr source  sentPk
attr title  "packets sent, vector(packetBytes)"
vector 276  Net802154MultiGateway.host[19].wrappedHost.trafficgen  PRR:vector  ETV
attr interpolationmode  none
attr source  count(sinkRcvdPk)/count(sentPk)
attr title  "PRR, vector"
vector 722  Net802154MultiGateway.host[51].wrappedHost.trafficgen  sinkRcvdPk:vector(packetBytes)  ETV
attr interpolationmode  none
attr source  sinkRcvdPk
attr title  "own packets received by sink, vector(packetBytes)"
vector 666  Net802154MultiGateway.host[47].wrappedHost.trafficgen  sinkRcvdPk:vector(packetBytes)  ETV
attr interpolationmode  none
attr source  sinkRcvdPk
attr title  "own packets received by sink, vector(packetBytes)"
vector 470  Net802154MultiGateway.host[33].wrappedHost.trafficgen  sinkRcvdPk:vector(packetBytes)  ETV
attr interpolationmode  none
attr source  sinkRcvdPk
attr title  "own packets received by sink, vector(packetBytes)"
vector 274  Net802154MultiGateway.host[19].wrappedHost.trafficgen  sinkRcvdPk:vector(packetBytes)  ETV
attr interpolationmode  none
attr source  sinkRcvdPk
attr title  "own packets received by sink, vector(packetBytes)"
vector 398  Net802154MultiGateway.host[28].wrappedHost.trafficgen  sentPk:vector(packetBytes)  ETV
attr interpolationmode  none
attr source  sentPk
attr title  "packets sent, vector(packetBytes)"
vector 402  Net802154MultiGateway.host[28].wrappedHost.trafficgen  PRR:vector  ETV
attr interpolationmode  none
attr source  count(sinkRcvdPk)/count(sentPk)
attr title  "PRR, vector"
vector 400  Net802154MultiGateway.host[28].wrappedHost.trafficgen  sinkRcvdPk:vector(packetBytes)  ETV
attr interpolationmode  none
attr source  sinkRcvdPk
attr title  "own packets received by sink, vector(packetBytes)"
vector 622  Net802154MultiGateway.host[44].wrappedHost.trafficgen  sentPk:vector(packetBytes)  ETV
attr interpolationmode  none
attr source  sentPk
attr title  "packets sent, vector(packetBytes)"
vector 626  Net802154MultiGateway.host[44].wrappedHost.trafficgen  PRR:vector  ETV
attr interpolationmode  none
attr source  count(sinkRcvdPk)/count(sentPk)
attr title  "PRR, vector"
vector 90  Net802154MultiGateway.host[6].wrappedHost.trafficgen  sentPk:vector(packetBytes)  ETV
attr interpolationmode  none
attr source  sentPk
attr title  "packets sent, vector(packetBytes)"
vector 94  Net802154MultiGateway.host[6].wrappedHost.trafficgen  PRR:vector  ETV
attr interpolationmode  none
attr source  count(sinkRcvdPk)/count(sentPk)
attr title  "PRR, vector"
vector 92  Net802154MultiGateway.host[6].wrappedHost.trafficgen  sinkRcvdPk:vector(packetBytes)  ETV
attr interpolationmode  none
attr source  sinkRcvdPk
attr title  "own packets received by sink, vector(packetBytes)"
vector 678  Net802154MultiGateway.host[48].wrappedHost.trafficgen  sentPk:vector(packetBytes)  ETV
attr interpolationmode  none
attr source  sentPk
attr title  "packets sent, vector(packetBytes)"
vector 682  Net802154MultiGateway.host[48].wrappedHost.trafficgen  PRR:vector  ETV
attr interpolationmode  none
attr source  count(sinkRcvdPk)/count(sentPk)
attr title  "PRR, vector"
vector 624  Net802154MultiGateway.host[44].wrappedHost.trafficgen  sinkRcvdPk:vector(packetBytes)  ETV
attr interpolationmode  none
attr source  sinkRcvdPk
attr title  "own packets received by sink, vector(packetBytes)"
vector 20  Net802154MultiGateway.host[1].wrappedHost.trafficgen  sentPk:vector(packetBytes)  ETV
attr interpolationmode  none
attr source  sentPk
attr title  "packets sent, vector(packetBytes)"
vector 24  Net802154MultiGateway.host[1].wrappedHost.trafficgen  PRR:vector  ETV
attr interpolationmode  none
attr source  count(sinkRcvdPk)/count(sentPk)
attr title  "PRR, vector"
vector 22  Net802154MultiGateway.host[1].wrappedHost.trafficgen  sinkRcvdPk:vector(packetBytes)  ETV
attr interpolationmode  none
attr source  sinkRcvdPk
attr title  "own packets received by sink, vector(packetBytes)"
vector 860  Net802154MultiGateway.host[61].wrappedHost.trafficgen  sentPk:vector(packetBytes)  ETV
attr interpolationmode  none
attr source  sentPk
attr title  "packets sent, vector(packetBytes)"
vector 864  Net802154MultiGateway.host[61].wrappedHost.trafficgen  PRR:vector  ETV
attr interpolationmode  none
attr source  count(sinkRcvdPk)/count(sentPk)
attr title  "PRR, vector"
vector 680  Net802154MultiGateway.host[48].wrappedHost.trafficgen  sinkRcvdPk:vector(packetBytes)  ETV
attr interpolationmode  none
attr source  sinkRcvdPk
attr title  "own packets received by sink, vector(packetBytes)"
vector 862  Net802154MultiGateway.host[61].wrappedHost.trafficgen  sinkRcvdPk:vector(packetBytes)  ETV
attr interpolationmode  none
attr source  sinkRcvdPk
attr title  "own packets received by sink, vector(packetBytes)"
vector 734  Net802154MultiGateway.host[52].wrappedHost.trafficgen  sentPk:vector(packetBytes)  ETV
attr interpolationmode  none
attr source  sentPk
attr title  "packets sent, vector(packetBytes)"
vector 738  Net802154MultiGateway.host[52].wrappedHost.trafficgen  PRR:vector  ETV
attr interpolationmode  none
attr source  count(sinkRcvdPk)/count(sentPk)
attr title  "PRR, vector"
vector 832  Net802154MultiGateway.host[59].wrappedHost.trafficgen  sentPk:vector(packetBytes)  ETV
attr interpolationmode  none
attr source  sentPk
attr title  "packets sent, vector(packetBytes)"
vector 836  Net802154MultiGateway.host[59].wrappedHost.trafficgen  PRR:vector  ETV
attr interpolationmode  none
attr source  count(sinkRcvdPk)/count(sentPk)
attr title  "PRR, vector"
vector 132  Net802154MultiGateway.host[9].wrappedHost.trafficgen  sentPk:vector(packetBytes)  ETV
attr interpolationmode  none
attr source  sentPk
attr title  "packets sent, vector(packetBytes)"
vector 136  Net802154MultiGateway.host[9].wrappedHost.trafficgen  PRR:vector  ETV
attr interpolationmode  none
attr source  count(sinkRcvdPk)/count(sentPk)
attr title  "PRR, vector"
vector 736  Net802154MultiGateway.host[52].wrappedHost.trafficgen  sinkRcvdPk:vector(packetBytes)  ETV
attr interpolationmode  none
attr source  sinkRcvdPk
attr title  "own packets received by sink, vector(packetBytes)"
vector 552  Net802154MultiGateway.host[39].wrappedHost.trafficgen  sentPk:vector(packetBytes)  ETV
attr interpolationmode  none
attr source  sentPk
attr title  "packets sent, vector(packetBytes)"
vector 556  Net802154MultiGateway.host[39].wrappedHost.trafficgen  PRR:vector  ETV
attr interpolationmode  none
attr source  count(sinkRcvdPk)/count(sentPk)
attr title  "PRR, vector"
vector 258  Net802154MultiGateway.host[18].wrappedHost.trafficgen  sentPk:vector(packetBytes)  ETV
attr interpolationmode  none
attr source  sentPk
attr title  "packets sent, vector(packetBytes)"
vector 262  Net802154MultiGateway.host[18].wrappedHost.trafficgen  PRR:vector  ETV
attr interpolationmode  none
attr source  count(sinkRcvdPk)/count(sentPk)
attr title  "PRR, vector"
vector 134  Net802154MultiGateway.host[9].wrappedHost.trafficgen  sinkRcvdPk:vector(packetBytes)  ETV
attr interpolationmode  none
attr source  sinkRcvdPk
attr title  "own packets received by sink, vector(packetBytes)"
vector 554  Net802154MultiGateway.host[39].wrappedHost.trafficgen  sinkRcvdPk:vector(packetBytes)  ETV
attr interpolationmode  none
attr source  sinkRcvdPk
attr title  "own packets received by sink, vector(packetBytes)"
vector 834  Net802154MultiGateway.host[59].wrappedHost.trafficgen  sinkRcvdPk:vector(packetBytes)  ETV
attr interpolationmode  none
attr source  sinkRcvdPk
attr title  "own packets received by sink, vector(packetBytes)"
vector 440  Net802154MultiGateway.host[31].wrappedHost.trafficgen  sentPk:vector(packetBytes)  ETV
attr interpolationmode  none
attr source  sentPk
attr title  "packets sent, vector(packetBytes)"
vector 444  Net802154MultiGateway.host[31].wrappedHost.trafficgen  PRR:vector  ETV
attr interpolationmode  none
attr source  count(sinkRcvdPk)/count(sentPk)
attr title  "PRR, vector"
vector 510  Net802154MultiGateway.host[36].wrappedHost.trafficgen  sentPk:vector(packetBytes)  ETV
attr interpolationmode  none
attr source  sentPk
attr title  "packets sent, vector(packetBytes)"
vector 514  Net802154MultiGateway.host[36].wrappedHost.trafficgen  PRR:vector  ETV
attr interpolationmode  none
attr source  count(sinkRcvdPk)/count(sentPk)
attr title  "PRR, vector"
vector 482  Net802154MultiGateway.host[34].wrappedHost.trafficgen  sentPk:vector(packetBytes)  ETV
attr interpolationmode  none
attr source  sentPk
attr title  "packets sent, vector(packetBytes)"
vector 486  Net802154MultiGateway.host[34].wrappedHost.trafficgen  PRR:vector  ETV
attr interpolationmode  none
attr source  count(sinkRcvdPk)/count(sentPk)
attr title  "PRR, vector"
vector 442  Net802154MultiGateway.host[31].wrappedHost.trafficgen  sinkRcvdPk:vector(packetBytes)  ETV
attr interpolationmode  none
attr source  sinkRcvdPk
attr title  "own packets received by sink, vector(packetBytes)"
vector 512  Net802154MultiGateway.host[36].wrappedHost.trafficgen  sinkRcvdPk:vector(packetBytes)  ETV
attr interpolationmode  none
attr source  sinkRcvdPk
attr title  "own packets received by sink, vector(packetBytes)"
vector 160  Net802154MultiGateway.host[11].wrappedHost.trafficgen  sentPk:vector(packetBytes)  ETV
attr interpolationmode  none
attr source  sentPk
attr title  "packets sent, vector(packetBytes)"
vector 164  Net802154MultiGateway.host[11].wrappedHost.trafficgen  PRR:vector  ETV
attr interpolationmode  none
attr source  count(sinkRcvdPk)/count(sentPk)
attr title  "PRR, vector"
vector 370  Net802154MultiGateway.host[26].wrappedHost.trafficgen  sentPk:vector(packetBytes)  ETV
attr interpolationmode  none
attr source  sentPk
attr title  "packets sent, vector(packetBytes)"
vector 374  Net802154MultiGateway.host[26].wrappedHost.trafficgen  PRR:vector  ETV
attr interpolationmode  none
attr source  count(sinkRcvdPk)/count(sentPk)
attr title  "PRR, vector"
vector 372  Net802154MultiGateway.host[26].wrappedHost.trafficgen  sinkRcvdPk:vector(packetBytes)  ETV
attr interpolationmode  none
attr source  sinkRcvdPk
attr title  "own packets received by sink, vector(packetBytes)"
vector 244  Net802154MultiGateway.host[17].wrappedHost.trafficgen  sentPk:vector(packetBytes)  ETV
attr interpolationmode  none
attr source  sentPk
attr title  "packets sent, vector(packetBytes)"
vector 248  Net802154MultiGateway.host[17].wrappedHost.trafficgen  PRR:vector  ETV
attr interpolationmode  none
attr source  count(sinkRcvdPk)/count(sentPk)
attr title  "PRR, vector"
vector 608  Net802154MultiGateway.host[43].wrappedHost.trafficgen  sentPk:vector(packetBytes)  ETV
attr interpolationmode  none
attr source  sentPk
attr title  "packets sent, vector(packetBytes)"
vector 612  Net802154MultiGateway.host[43].wrappedHost.trafficgen  PRR:vector  ETV
attr interpolationmode  none
attr source  count(sinkRcvdPk)/count(sentPk)
attr title  "PRR, vector"
vector 246  Net802154MultiGateway.host[17].wrappedHost.trafficgen  sinkRcvdPk:vector(packetBytes)  ETV
attr interpolationmode  none
attr source  sinkRcvdPk
attr title  "own packets received by sink, vector(packetBytes)"
vector 610  Net802154MultiGateway.host[43].wrappedHost.trafficgen  sinkRcvdPk:vector(packetBytes)  ETV
attr interpolationmode  none
attr source  sinkRcvdPk
attr title  "own packets received by sink, vector(packetBytes)"
vector 356  Net802154MultiGateway.host[25].wrappedHost.trafficgen  sentPk:vector(packetBytes)  ETV
attr interpolationmode  none
attr source  sentPk
attr title  "packets sent, vector(packetBytes)"
vector 360  Net802154MultiGateway.host[25].wrappedHost.trafficgen  PRR:vector  ETV
attr interpolationmode  none
attr source  count(sinkRcvdPk)/count(sentPk)
attr title  "PRR, vector"
vector 358  Net802154MultiGateway.host[25].wrappedHost.trafficgen  sinkRcvdPk:vector(packetBytes)  ETV
attr interpolationmode  none
attr source  sinkRcvdPk
attr title  "own packets received by sink, vector(packetBytes)"
vector 818  Net802154MultiGateway.host[58].wrappedHost.trafficgen  sentPk:vector(packetBytes)  ETV
attr interpolationmode  none
attr source  sentPk
attr title  "packets sent, vector(packetBytes)"
vector 822  Net802154MultiGateway.host[58].wrappedHost.trafficgen  PRR:vector  ETV
attr interpolationmode  none
attr source  count(sinkRcvdPk)/count(sentPk)
attr title  "PRR, vector"
vector 820  Net802154MultiGateway.host[58].wrappedHost.trafficgen  sinkRcvdPk:vector(packetBytes)  ETV
attr interpolationmode  none
attr source  sinkRcvdPk
attr title  "own packets received by sink, vector(packetBytes)"
vector 524  Net802154MultiGateway.host[37].wrappedHost.trafficgen  sentPk:vector(packetBytes)  ETV
attr interpolationmode  none
attr source  sentPk
attr title  "packets sent, vector(packetBytes)"
vector 528  Net802154MultiGateway.host[37].wrappedHost.trafficgen  PRR:vector  ETV
attr interpolationmode  none
attr source  count(sinkRcvdPk)/count(sentPk)
attr title  "PRR, vector"
vector 526  Net802154MultiGateway.host[37].wrappedHost.trafficgen  sinkRcvdPk:vector(packetBytes)  ETV
attr interpolationmode  none
attr source  sinkRcvdPk
attr title  "own packets received by sink, vector(packetBytes)"
vector 48  Net802154MultiGateway.host[3].wrappedHost.trafficgen  sentPk:vector(packetBytes)  ETV
attr interpolationmode  none
attr source  sentPk
attr title  "packets sent, vector(packetBytes)"
vector 52  Net802154MultiGateway.host[3].wrappedHost.trafficgen  PRR:vector  ETV
attr interpolationmode  none
attr source  count(sinkRcvdPk)/count(sentPk)
attr title  "PRR, vector"
vector 50  Net802154MultiGateway.host[3].wrappedHost.trafficgen  sinkRcvdPk:vector(packetBytes)  ETV
attr interpolationmode  none
attr source  sinkRcvdPk
attr title  "own packets received by sink, vector(packetBytes)"
vector 762  Net802154MultiGateway.host[54].wrappedHost.trafficgen  sentPk:vector(packetBytes)  ETV
attr interpolationmode  none
attr source  sentPk
attr title  "packets sent, vector(packetBytes)"
vector 766  Net802154MultiGateway.host[54].wrappedHost.trafficgen  PRR:vector  ETV
attr interpolationmode  none
attr source  count(sinkRcvdPk)/count(sentPk)
attr title  "PRR, vector"
vector 764  Net802154MultiGateway.host[54].wrappedHost.trafficgen  sinkRcvdPk:vector(packetBytes)  ETV
attr interpolationmode  none
attr source  sinkRcvdPk
attr title  "own packets received by sink, vector(packetBytes)"
vector 230  Net802154MultiGateway.host[16].wrappedHost.trafficgen  sentPk:vector(packetBytes)  ETV
attr interpolationmode  none
attr source  sentPk
attr title  "packets sent, vector(packetBytes)"
vector 234  Net802154MultiGateway.host[16].wrappedHost.trafficgen  PRR:vector  ETV
attr interpolationmode  none
attr source  count(sinkRcvdPk)/count(sentPk)
attr title  "PRR, vector"
vector 146  Net802154MultiGateway.host[10].wrappedHost.trafficgen  sentPk:vector(packetBytes)  ETV
attr interpolationmode  none
attr source  sentPk
attr title  "packets sent, vector(packetBytes)"
vector 150  Net802154MultiGateway.host[10].wrappedHost.trafficgen  PRR:vector  ETV
attr interpolationmode  none
attr source  count(sinkRcvdPk)/count(sentPk)
attr title  "PRR, vector"
vector 232  Net802154MultiGateway.host[16].wrappedHost.trafficgen  sinkRcvdPk:vector(packetBytes)  ETV
attr interpolationmode  none
attr source  sinkRcvdPk
attr title  "own packets received by sink, vector(packetBytes)"
vector 148  Net802154MultiGateway.host[10].wrappedHost.trafficgen  sinkRcvdPk:vector(packetBytes)  ETV
attr interpolationmode  none
attr source  sinkRcvdPk
attr title  "own packets received by sink, vector(packetBytes)"
vector 260  Net802154MultiGateway.host[18].wrappedHost.trafficgen  sinkRcvdPk:vector(packetBytes)  ETV
attr interpolationmode  none
attr source  sinkRcvdPk
attr title  "own packets received by sink, vector(packetBytes)"
vector 804  Net802154MultiGateway.host[57].wrappedHost.trafficgen  sentPk:vector(packetBytes)  ETV
attr interpolationmode  none
attr source  sentPk
attr title  "packets sent, vector(packetBytes)"
vector 808  Net802154MultiGateway.host[57].wrappedHost.trafficgen  PRR:vector  ETV
attr interpolationmode  none
attr source  count(sinkRcvdPk)/count(sentPk)
attr title  "PRR, vector"
vector 806  Net802154MultiGateway.host[57].wrappedHost.trafficgen  sinkRcvdPk:vector(packetBytes)  ETV
attr interpolationmode  none
attr source  sinkRcvdPk
attr title  "own packets received by sink, vector(packetBytes)"
vector 216  Net802154MultiGateway.host[15].wrappedHost.trafficgen  sentPk:vector(packetBytes)  ETV
attr interpolationmode  none
attr source  sentPk
attr title  "packets sent, vector(packetBytes)"
vector 220  Net802154MultiGateway.host[15].wrappedHost.trafficgen  PRR:vector  ETV
attr interpolationmode  none
attr source  count(sinkRcvdPk)/count(sentPk)
attr title  "PRR, vector"
vector 650  Net802154MultiGateway.host[46].wrappedHost.trafficgen  sentPk:vector(packetBytes)  ETV
attr interpolationmode  none
attr source  sentPk
attr title  "packets sent, vector(packetBytes)"
vector 654  Net802154MultiGateway.host[46].wrappedHost.trafficgen  PRR:vector  ETV
attr interpolationmode  none
attr source  count(sinkRcvdPk)/count(sentPk)
attr title  "PRR, vector"
vector 218  Net802154MultiGateway.host[15].wrappedHost.trafficgen  sinkRcvdPk:vector(packetBytes)  ETV
attr interpolationmode  none
attr source  sinkRcvdPk
attr title  "own packets received by sink, vector(packetBytes)"
vector 580  Net802154MultiGateway.host[41].wrappedHost.trafficgen  sentPk:vector(packetBytes)  ETV
attr interpolationmode  none
attr source  sentPk
attr title  "packets sent, vector(packetBytes)"
vector 584  Net802154MultiGateway.host[41].wrappedHost.trafficgen  PRR:vector  ETV
attr interpolationmode  none
attr source  count(sinkRcvdPk)/count(sentPk)
attr title  "PRR, vector"
vector 652  Net802154MultiGateway.host[46].wrappedHost.trafficgen  sinkRcvdPk:vector(packetBytes)  ETV
attr interpolationmode  none
attr source  sinkRcvdPk
attr title  "own packets received by sink, vector(packetBytes)"
vector 776  Net802154MultiGateway.host[55].wrappedHost.trafficgen  sentPk:vector(packetBytes)  ETV
attr interpolationmode  none
attr source  sentPk
attr title  "packets sent, vector(packetBytes)"
vector 780  Net802154MultiGateway.host[55].wrappedHost.trafficgen  PRR:vector  ETV
attr interpolationmode  none
attr source  count(sinkRcvdPk)/count(sentPk)
attr title  "PRR, vector"
vector 300  Net802154MultiGateway.host[21].wrappedHost.trafficgen  sentPk:vector(packetBytes)  ETV
attr interpolationmode  none
attr source  sentPk
attr title  "packets sent, vector(packetBytes)"
vector 304  Net802154MultiGateway.host[21].wrappedHost.trafficgen  PRR:vector  ETV
attr interpolationmode  none
attr source  count(sinkRcvdPk)/count(sentPk)
attr title  "PRR, vector"
vector 582  Net802154MultiGateway.host[41].wrappedHost.trafficgen  sinkRcvdPk:vector(packetBytes)  ETV
attr interpolationmode  none
attr source  sinkRcvdPk
attr title  "own packets received by sink, vector(packetBytes)"
vector 162  Net802154MultiGateway.host[11].wrappedHost.trafficgen  sinkRcvdPk:vector(packetBytes)  ETV
attr interpolationmode  none
attr source  sinkRcvdPk
attr title  "own packets received by sink, vector(packetBytes)"
vector 302  Net802154MultiGateway.host[21].wrappedHost.trafficgen  sinkRcvdPk:vector(packetBytes)  ETV
attr interpolationmode  none
attr source  sinkRcvdPk
attr title  "own packets received by sink, vector(packetBytes)"
vector 706  Net802154MultiGateway.host[50].wrappedHost.trafficgen  sentPk:vector(packetBytes)  ETV
attr interpolationmode  none
attr source  sentPk
attr title  "packets sent, vector(packetBytes)"
vector 710  Net802154MultiGateway.host[50].wrappedHost.trafficgen  PRR:vector  ETV
attr interpolationmode  none
attr source  count(sinkRcvdPk)/count(sentPk)
attr title  "PRR, vector"
vector 484  Net802154MultiGateway.host[34].wrappedHost.trafficgen  sinkRcvdPk:vector(packetBytes)  ETV
attr interpolationmode  none
attr source  sinkRcvdPk
attr title  "own packets received by sink, vector(packetBytes)"
vector 708  Net802154MultiGateway.host[50].wrappedHost.trafficgen  sinkRcvdPk:vector(packetBytes)  ETV
attr interpolationmode  none
attr source  sinkRcvdPk
attr title  "own packets received by sink, vector(packetBytes)"
vector 778  Net802154MultiGateway.host[55].wrappedHost.trafficgen  sinkRcvdPk:vector(packetBytes)  ETV
attr interpolationmode  none
attr source  sinkRcvdPk
attr title  "own packets received by sink, vector(packetBytes)"
vector 566  Net802154MultiGateway.host[40].wrappedHost.trafficgen  sentPk:vector(packetBytes)  ETV
attr interpolationmode  none
attr source  sentPk
attr title  "packets sent, vector(packetBytes)"
vector 570  Net802154MultiGateway.host[40].wrappedHost.trafficgen  PRR:vector  ETV
attr interpolationmode  none
attr source  count(sinkRcvdPk)/count(sentPk)
attr title  "PRR, vector"
vector 174  Net802154MultiGateway.host[12].wrappedHost.trafficgen  sentPk:vector(packetBytes)  ETV
attr interpolationmode  none
attr source  sentPk
attr title  "packets sent, vector(packetBytes)"
vector 178  Net802154MultiGateway.host[12].wrappedHost.trafficgen  PRR:vector  ETV
attr interpolationmode  none
attr source  count(sinkRcvdPk)/count(sentPk)
attr title  "PRR, vector"
vector 176  Net802154MultiGateway.host[12].wrappedHost.trafficgen  sinkRcvdPk:vector(packetBytes)  ETV
attr interpolationmode  none
attr source  sinkRcvdPk
attr title  "own packets received by sink, vector(packetBytes)"
vector 568  Net802154MultiGateway.host[40].wrappedHost.trafficgen  sinkRcvdPk:vector(packetBytes)  ETV
attr interpolationmode  none
attr source  sinkRcvdPk
attr title  "own packets received by sink, vector(packetBytes)"
vector 412  Net802154MultiGateway.host[29].wrappedHost.trafficgen  sentPk:vector(packetBytes)  ETV
attr interpolationmode  none
attr source  sentPk
attr title  "packets sent, vector(packetBytes)"
vector 416  Net802154MultiGateway.host[29].wrappedHost.trafficgen  PRR:vector  ETV
attr interpolationmode  none
attr source  count(sinkRcvdPk)/count(sentPk)
attr title  "PRR, vector"
vector 748  Net802154MultiGateway.host[53].wrappedHost.trafficgen  sentPk:vector(packetBytes)  ETV
attr interpolationmode  none
attr source  sentPk
attr title  "packets sent, vector(packetBytes)"
vector 752  Net802154MultiGateway.host[53].wrappedHost.trafficgen  PRR:vector  ETV
attr interpolationmode  none
attr source  count(sinkRcvdPk)/count(sentPk)
attr title  "PRR, vector"
vector 414  Net802154MultiGateway.host[29].wrappedHost.trafficgen  sinkRcvdPk:vector(packetBytes)  ETV
attr interpolationmode  none
attr source  sinkRcvdPk
attr title  "own packets received by sink, vector(packetBytes)"
vector 750  Net802154MultiGateway.host[53].wrappedHost.trafficgen  sinkRcvdPk:vector(packetBytes)  ETV
attr interpolationmode  none
attr source  sinkRcvdPk
attr title  "own packets received by sink, vector(packetBytes)"
vector 202  Net802154MultiGateway.host[14].wrappedHost.trafficgen  sentPk:vector(packetBytes)  ETV
attr interpolationmode  none
attr source  sentPk
attr title  "packets sent, vector(packetBytes)"
vector 206  Net802154MultiGateway.host[14].wrappedHost.trafficgen  PRR:vector  ETV
attr interpolationmode  none
attr source  count(sinkRcvdPk)/count(sentPk)
attr title  "PRR, vector"
vector 204  Net802154MultiGateway.host[14].wrappedHost.trafficgen  sinkRcvdPk:vector(packetBytes)  ETV
attr interpolationmode  none
attr source  sinkRcvdPk
attr title  "own packets received by sink, vector(packetBytes)"
vector 188  Net802154MultiGateway.host[13].wrappedHost.trafficgen  sentPk:vector(packetBytes)  ETV
attr interpolationmode  none
attr source  sentPk
attr title  "packets sent, vector(packetBytes)"
vector 192  Net802154MultiGateway.host[13].wrappedHost.trafficgen  PRR:vector  ETV
attr interpolationmode  none
attr source  count(sinkRcvdPk)/count(sentPk)
attr title  "PRR, vector"
vector 190  Net802154MultiGateway.host[13].wrappedHost.trafficgen  sinkRcvdPk:vector(packetBytes)  ETV
attr interpolationmode  none
attr source  sinkRcvdPk
attr title  "own packets received by sink, vector(packetBytes)"
vector 496  Net802154MultiGateway.host[35].wrappedHost.trafficgen  sentPk:vector(packetBytes)  ETV
attr interpolationmode  none
attr source  sentPk
attr title  "packets sent, vector(packetBytes)"
vector 500  Net802154MultiGateway.host[35].wrappedHost.trafficgen  PRR:vector  ETV
attr interpolationmode  none
attr source  count(sinkRcvdPk)/count(sentPk)
attr title  "PRR, vector"
vector 498  Net802154MultiGateway.host[35].wrappedHost.trafficgen  sinkRcvdPk:vector(packetBytes)  ETV
attr interpolationmode  none
attr source  sinkRcvdPk
attr title  "own packets received by sink, vector(packetBytes)"
vector 790  Net802154MultiGateway.host[56].wrappedHost.trafficgen  sentPk:vector(packetBytes)  ETV
attr interpolationmode  none
attr source  sentPk
attr title  "packets sent, vector(packetBytes)"
vector 794  Net802154MultiGateway.host[56].wrappedHost.trafficgen  PRR:vector  ETV
attr interpolationmode  none
attr source  count(sinkRcvdPk)/count(sentPk)
attr title  "PRR, vector"
vector 792  Net802154MultiGateway.host[56].wrappedHost.trafficgen  sinkRcvdPk:vector(packetBytes)  ETV
attr interpolationmode  none
attr source  sinkRcvdPk
attr title  "own packets received by sink, vector(packetBytes)"
vector 314  Net802154MultiGateway.host[22].wrappedHost.trafficgen  sentPk:vector(packetBytes)  ETV
attr interpolationmode  none
attr source  sentPk
attr title  "packets sent, vector(packetBytes)"
vector 318  Net802154MultiGateway.host[22].wrappedHost.trafficgen  PRR:vector  ETV
attr interpolationmode  none
attr source  count(sinkRcvdPk)/count(sentPk)
attr title  "PRR, vector"
vector 316  Net802154MultiGateway.host[22].wrappedHost.trafficgen  sinkRcvdPk:vector(packetBytes)  ETV
attr interpolationmode  none
attr source  sinkRcvdPk
attr title  "own packets received by sink, vector(packetBytes)"
vector 454  Net802154MultiGateway.host[32].wrappedHost.trafficgen  sentPk:vector(packetBytes)  ETV
attr interpolationmode  none
attr source  sentPk
attr title  "packets sent, vector(packetBytes)"
vector 458  Net802154MultiGateway.host[32].wrappedHost.trafficgen  PRR:vector  ETV
attr interpolationmode  none
attr source  count(sinkRcvdPk)/count(sentPk)
attr title  "PRR, vector"
vector 456  Net802154MultiGateway.host[32].wrappedHost.trafficgen  sinkRcvdPk:vector(packetBytes)  ETV
attr interpolationmode  none
attr source  sinkRcvdPk
attr title  "own packets received by sink, vector(packetBytes)"
vector 34  Net802154MultiGateway.host[2].wrappedHost.trafficgen  sentPk:vector(packetBytes)  ETV
attr interpolationmode  none
attr source  sentPk
attr title  "packets sent, vector(packetBytes)"
vector 38  Net802154MultiGateway.host[2].wrappedHost.trafficgen  PRR:vector  ETV
attr interpolationmode  none
attr source  count(sinkRcvdPk)/count(sentPk)
attr title  "PRR, vector"
vector 36  Net802154MultiGateway.host[2].wrappedHost.trafficgen  sinkRcvdPk:vector(packetBytes)  ETV
attr interpolationmode  none
attr source  sinkRcvdPk
attr title  "own packets received by sink, vector(packetBytes)"
vector 328  Net802154MultiGateway.host[23].wrappedHost.trafficgen  sentPk:vector(packetBytes)  ETV
attr interpolationmode  none
attr source  sentPk
attr title  "packets sent, vector(packetBytes)"
vector 332  Net802154MultiGateway.host[23].wrappedHost.trafficgen  PRR:vector  ETV
attr interpolationmode  none
attr source  count(sinkRcvdPk)/count(sentPk)
attr title  "PRR, vector"
vector 330  Net802154MultiGateway.host[23].wrappedHost.trafficgen  sinkRcvdPk:vector(packetBytes)  ETV
attr interpolationmode  none
attr source  sinkRcvdPk
attr title  "own packets received by sink, vector(packetBytes)"
vector 76  Net802154MultiGateway.host[5].wrappedHost.trafficgen  sentPk:vector(packetBytes)  ETV
attr interpolationmode  none
attr source  sentPk
attr title  "packets sent, vector(packetBytes)"
vector 80  Net802154MultiGateway.host[5].wrappedHost.trafficgen  PRR:vector  ETV
attr interpolationmode  none
attr source  count(sinkRcvdPk)/count(sentPk)
attr title  "PRR, vector"
vector 78  Net802154MultiGateway.host[5].wrappedHost.trafficgen  sinkRcvdPk:vector(packetBytes)  ETV
attr interpolationmode  none
attr source  sinkRcvdPk
attr title  "own packets received by sink, vector(packetBytes)"
vector 286  Net802154MultiGateway.host[20].wrappedHost.trafficgen  sentPk:vector(packetBytes)  ETV
attr interpolationmode  none
attr source  sentPk
attr title  "packets sent, vector(packetBytes)"
vector 290  Net802154MultiGateway.host[20].wrappedHost.trafficgen  PRR:vector  ETV
attr interpolationmode  none
attr source  count(sinkRcvdPk)/count(sentPk)
attr title  "PRR, vector"
vector 288  Net802154MultiGateway.host[20].wrappedHost.trafficgen  sinkRcvdPk:vector(packetBytes)  ETV
attr interpolationmode  none
attr source  sinkRcvdPk
attr title  "own packets received by sink, vector(packetBytes)"
vector 636  Net802154MultiGateway.host[45].wrappedHost.trafficgen  sentPk:vector(packetBytes)  ETV
attr interpolationmode  none
attr source  sentPk
attr title  "packets sent, vector(packetBytes)"
vector 640  Net802154MultiGateway.host[45].wrappedHost.trafficgen  PRR:vector  ETV
attr interpolationmode  none
attr source  count(sinkRcvdPk)/count(sentPk)
attr title  "PRR, vector"
vector 638  Net802154MultiGateway.host[45].wrappedHost.trafficgen  sinkRcvdPk:vector(packetBytes)  ETV
attr interpolationmode  none
attr source  sinkRcvdPk
attr title  "own packets received by sink, vector(packetBytes)"
vector 104  Net802154MultiGateway.host[7].wrappedHost.trafficgen  sentPk:vector(packetBytes)  ETV
attr interpolationmode  none
attr source  sentPk
attr title  "packets sent, vector(packetBytes)"
vector 108  Net802154MultiGateway.host[7].wrappedHost.trafficgen  PRR:vector  ETV
attr interpolationmode  none
attr source  count(sinkRcvdPk)/count(sentPk)
attr title  "PRR, vector"
vector 106  Net802154MultiGateway.host[7].wrappedHost.trafficgen  sinkRcvdPk:vector(packetBytes)  ETV
attr interpolationmode  none
attr source  sinkRcvdPk
attr title  "own packets received by sink, vector(packetBytes)"
vector 118  Net802154MultiGateway.host[8].wrappedHost.trafficgen  sentPk:vector(packetBytes)  ETV
attr interpolationmode  none
attr source  sentPk
attr title  "packets sent, vector(packetBytes)"
vector 122  Net802154MultiGateway.host[8].wrappedHost.trafficgen  PRR:vector  ETV
attr interpolationmode  none
attr source  count(sinkRcvdPk)/count(sentPk)
attr title  "PRR, vector"
vector 120  Net802154MultiGateway.host[8].wrappedHost.trafficgen  sinkRcvdPk:vector(packetBytes)  ETV
attr interpolationmode  none
attr source  sinkRcvdPk
attr title  "own packets received by sink, vector(packetBytes)"
vector 846  Net802154MultiGateway.host[60].wrappedHost.trafficgen  sentPk:vector(packetBytes)  ETV
attr interpolationmode  none
attr source  sentPk
attr title  "packets sent, vector(packetBytes)"
vector 850  Net802154MultiGateway.host[60].wrappedHost.trafficgen  PRR:vector  ETV
attr interpolationmode  none
attr source  count(sinkRcvdPk)/count(sentPk)
attr title  "PRR, vector"
vector 848  Net802154MultiGateway.host[60].wrappedHost.trafficgen  sinkRcvdPk:vector(packetBytes)  ETV
attr interpolationmode  none
attr source  sinkRcvdPk
attr title  "own packets received by sink, vector(packetBytes)"
vector 342  Net802154MultiGateway.host[24].wrappedHost.trafficgen  sentPk:vector(packetBytes)  ETV
attr interpolationmode  none
attr source  sentPk
attr title  "packets sent, vector(packetBytes)"
vector 346  Net802154MultiGateway.host[24].wrappedHost.trafficgen  PRR:vector  ETV
attr interpolationmode  none
attr source  count(sinkRcvdPk)/count(sentPk)
attr title  "PRR, vector"
vector 344  Net802154MultiGateway.host[24].wrappedHost.trafficgen  sinkRcvdPk:vector(packetBytes)  ETV
attr interpolationmode  none
attr source  sinkRcvdPk
attr title  "own packets received by sink, vector(packetBytes)"
vector 426  Net802154MultiGateway.host[30].wrappedHost.trafficgen  sentPk:vector(packetBytes)  ETV
attr interpolationmode  none
attr source  sentPk
attr title  "packets sent, vector(packetBytes)"
vector 430  Net802154MultiGateway.host[30].wrappedHost.trafficgen  PRR:vector  ETV
attr interpolationmode  none
attr source  count(sinkRcvdPk)/count(sentPk)
attr title  "PRR, vector"
vector 428  Net802154MultiGateway.host[30].wrappedHost.trafficgen  sinkRcvdPk:vector(packetBytes)  ETV
attr interpolationmode  none
attr source  sinkRcvdPk
attr title  "own packets received by sink, vector(packetBytes)"
vector 692  Net802154MultiGateway.host[49].wrappedHost.trafficgen  sentPk:vector(packetBytes)  ETV
attr interpolationmode  none
attr source  sentPk
attr title  "packets sent, vector(packetBytes)"
vector 696  Net802154MultiGateway.host[49].wrappedHost.trafficgen  PRR:vector  ETV
attr interpolationmode  none
attr source  count(sinkRcvdPk)/count(sentPk)
attr title  "PRR, vector"
vector 694  Net802154MultiGateway.host[49].wrappedHost.trafficgen  sinkRcvdPk:vector(packetBytes)  ETV
attr interpolationmode  none
attr source  sinkRcvdPk
attr title  "own packets received by sink, vector(packetBytes)"
vector 62  Net802154MultiGateway.host[4].wrappedHost.trafficgen  sentPk:vector(packetBytes)  ETV
attr interpolationmode  none
attr source  sentPk
attr title  "packets sent, vector(packetBytes)"
vector 66  Net802154MultiGateway.host[4].wrappedHost.trafficgen  PRR:vector  ETV
attr interpolationmode  none
attr source  count(sinkRcvdPk)/count(sentPk)
attr title  "PRR, vector"
vector 64  Net802154MultiGateway.host[4].wrappedHost.trafficgen  sinkRcvdPk:vector(packetBytes)  ETV
attr interpolationmode  none
attr source  sinkRcvdPk
attr title  "own packets received by sink, vector(packetBytes)"
vector 594  Net802154MultiGateway.host[42].wrappedHost.trafficgen  sentPk:vector(packetBytes)  ETV
attr interpolationmode  none
attr source  sentPk
attr title  "packets sent, vector(packetBytes)"
vector 598  Net802154MultiGateway.host[42].wrappedHost.trafficgen  PRR:vector  ETV
attr interpolationmode  none
attr source  count(sinkRcvdPk)/count(sentPk)
attr title  "PRR, vector"
vector 596  Net802154MultiGateway.host[42].wrappedHost.trafficgen  sinkRcvdPk:vector(packetBytes)  ETV
attr interpolationmode  none
attr source  sinkRcvdPk
attr title  "own packets received by sink, vector(packetBytes)"
vector 538  Net802154MultiGateway.host[38].wrappedHost.trafficgen  sentPk:vector(packetBytes)  ETV
attr interpolationmode  none
attr source  sentPk
attr title  "packets sent, vector(packetBytes)"
vector 542  Net802154MultiGateway.host[38].wrappedHost.trafficgen  PRR:vector  ETV
attr interpolationmode  none
attr source  count(sinkRcvdPk)/count(sentPk)
attr title  "PRR, vector"
vector 540  Net802154MultiGateway.host[38].wrappedHost.trafficgen  sinkRcvdPk:vector(packetBytes)  ETV
attr interpolationmode  none
attr source  sinkRcvdPk
attr title  "own packets received by sink, vector(packetBytes)"
5	1308453	220.062259209377	76
5	1309211	220.106454793858	76
5	1309328	220.11320702818	76
5	1309400	220.11841994281	76
5	1309477	220.125473341325	76
5	1309763	220.180343350558	76
5	1310458	220.324038997049	76
5	1310542	220.333448988203	76
5	1310655	220.339943655331	76
5	1310897	220.362806401958	76
5	1311036	220.37717978044	76
5	1311316	220.403349342306	76
5	1311618	220.447146633139	76
5	1312237	220.4861404032	76
5	1312409	220.498662484213	76
5	1312542	220.511877085658	76
5	1312707	220.530525478637	76
5	1313091	220.561978109271	76
5	1313177	220.568057194423	76
5	1313949	220.64643248955	76
5	1314087	220.663625464508	76
5	1314334	220.715222207958	76
5	1314642	220.75165824047	76
5	1314811	220.768561334687	76
5	1314995	220.803865286343	76
5	1315350	220.940609521904	76
5	1315508	220.955167784006	76
5	1315845	220.978067713248	76
5	1316135	220.996640082112	76
5	1316333	221.018685391555	76
5	1316409	221.027306767932	76
5	1316471	221.050232826367	76
5	1316748	221.185975772288	76
5	1316967	221.216082038103	76
5	1317220	221.237434493159	76
5	1317339	221.250853438418	76
5	1317529	221.275283820802	76
5	1317815	221.360230941598	76
5	1318085	221.379012472847	76
5	1318343	221.400073518492	76
5	1318532	221.421469493077	76
5	1318845	221.468473856961	76
5	1318962	221.479260001543	76
5	1319019	221.485093398205	76
5	1319149	221.539497154964	76
5	1319394	221.568701497874	76
5	1319971	221.602232414475	76
5	1320338	221.62291134526	76
5	1320441	221.63055330106	76
5	1320561	221.642846371191	76
5	1321044	221.694152164212	76
5	1321312	221.708694408186	76
5	1321389	221.717699276672	76
5	1322043	221.814031844963	76
5	1322155	221.819535312117	76
5	1322270	221.831217715223	76
5	1322688	221.905106378223	76
5	1322826	221.92174486965	76
5	1323059	221.967082086799	76
5	1323399	222.0493627807	76
5	1323622	222.060118724025	76
5	1324007	222.090677912936	76
5	1324576	222.135459635001	76
5	1324697	222.141604230753	76
5	1325299	222.176891755044	76
5	1325366	222.181563969398	76
5	1325805	222.21371234879	76
5	1325865	222.220590636867	76
5	1325923	222.227085303995	76
5	1326165	222.333139062986	76
5	1326785	222.414917085377	76
5	1326952	222.425917550383	76
5	1327246	222.445784044882	76
5	1327342	222.452798296098	76
5	1327638	222.523107239663	76
5	1327945	222.599095895528	76
5	1328011	222.705345887948	76
5	1328195	222.737345788012	76
5	1328406	222.818993150211	76
5	1328616	222.890229763307	76
5	1328761	222.920326074503	76
5	1328802	222.925860741631	76
5	1328987	222.955980777427	76
5	1329147	223.011614740818	76
5	1329522	223.054707596654	76
5	1329726	223.070998978511	76
5	1330016	223.113164598646	76
5	1330194	223.129530546853	76
5	1330313	223.142322927421	76
5	1330434	223.163571311941	76
5	1330596	223.223603791965	76
5	1330690	223.275067209164	76
5	1330981	223.316059850811	76
5	1331225	223.389912112315	76
5	1331485	223.482902329844	76
5	1331944	223.536394943546	76
5	1332226	223.550584337091	76
5	1332512	223.56928689306	76
5	1332610	223.576744354942	76
5	1332904	223.596962348605	76
5	1333266	223.629042403731	76
5	1333324	223.634257070859	76
5	1333448	223.654789984011	76
5	1333622	223.745956814866	76
5	1333841	223.77124068753	76
5	1334177	223.799636904356	76
5	1334812	223.99547989627	76
5	1334922	224.003764811687	76
5	1335302	224.041369433853	76
5	1335520	224.069330832568	76
5	1335743	224.08505365935	76
5	1336074	224.104573298255	76
5	1336166	224.109645502456	76
5	1336400	224.133286070116	76
5	1336555	224.178649638573	76
5	1336786	224.232671156634	76
5	1337422	224.289498921782	76
5	1337629	224.300784815829	76
5	1337833	224.317739482957	76
5	1338182	224.444210094426	76
5	1338480	224.556839673621	76
5	1338652	224.569730340749	76
5	1338906	224.604829543759	76
5	1339178	224.65212208583	76
5	1339354	224.666839463725	76
5	1339628	224.707401829314	76
5	1340278	224.762902075971	76
5	1340322	224.768446521869	76
5	1340386	224.856273771223	76
5	1340709	224.925077243442	76
5	1340904	224.938252786498	76
5	1341350	224.976966793302	76
5	1341398	224.981729228388	76
5	1341519	224.996761073196	76
5	1341969	225.050919158333	76
5	1342302	225.075579208091	76
5	1342436	225.089796109933	76
5	1342588	225.115631425064	76
5	1342856	225.152881231453	76
5	1343648	225.212712048546	76
5	1343882	225.257754780335	76
5	1344181	225.365376867052	76
5	1344258	225.374491531645	76
5	1344518	225.420290512033	76
5	1344710	225.442318485237	76
5	1344931	225.470720502724	76
5	1345357	225.503149695552	76
5	1345580	225.519841504364	76
5	1345730	225.535627993857	76
5	1345933	225.609445515541	76
5	1346051	225.627106900567	76
5	1346483	225.671923396895	76
5	1346592	225.682467902311	76
5	1346989	225.722289911893	76
5	1347190	225.72976934022	76
5	1347319	225.737527510207	76
5	1347368	225.742329054186	76
5	1347656	225.795164927968	76
5	1348164	225.867526858617	76
5	1348352	225.879292489065	76
5	1348598	225.890673411886	76
5	1348719	225.906147391676	76
5	1348945	225.937353037835	76
5	1349184	225.963904047775	76
5	1349572	226.002390768639	76
5	1349697	226.048966899264	76
5	1349929	226.084911430306	76
5	1350170	226.119664258756	76
5	1350508	226.190829302649	76
5	1350633	226.223300358339	76
5	1350885	226.296165877349	76
5	1351082	226.312066144784	76
5	1351231	226.333381998632	76
5	1351468	226.381915035112	76
5	1351675	226.415411801948	76
5	1351902	226.457951551836	76
5	1352028	226.49503151988	76
5	1352153	226.591644117679	76
5	1352279	226.640350636475	76
5	1352534	226.71690737306	76
5	1352601	226.762410287293	76
5	1352888	226.797116008572	76
5	1353012	226.852098499926	76
5	1353309	226.898476073308	76
5	1353797	226.932305617948	76
5	1354059	226.948812991462	76
5	1354152	226.957649919297	76
5	1354197	226.963184586425	76
5	1354544	227.00414313945	76
5	1354762	227.030703189407	76
5	1354997	227.069026516093	76
5	1355177	227.084755000166	76
5	1355458	227.120280801595	76
5	1355778	227.189566929412	76
5	1356495	227.233951865859	76
5	1356668	227.241846474719	76
5	1357112	227.265320833851	76
5	1357169	227.270280543461	76
5	1357275	227.276135210589	76
5	1357384	227.283269877717	76
5	1357580	227.305694283419	76
5	1357844	227.326772008901	76
5	1357944	227.331360023488	76
5	1358054	227.344455800618	76
5	1358364	227.367161414324	76
5	1358423	227.371808937988	76
5	1358625	227.387169462324	76
5	1358979	227.411447789736	76
5	1359094	227.417969398756	76
5	1359906	227.478403668771	76
5	1360098	227.489444725232	76
5	1360366	227.499795349815	76
5	1360476	227.506578115696	76
5	1360909	227.53498139236	76
5	1361067	227.551825082487	76
5	1361197	227.568172970527	76
5	1361707	227.598839882253	76
5	1361804	227.607638602368	76
5	1362056	227.620185986968	76
5	1362897	227.655664345979	76
5	1362966	227.662281267393	76
5	1363280	227.686799330322	76
5	1363451	227.700183554735	76
5	1363564	227.711727006079	76
5	1363820	227.784281004694	76
5	1364033	227.811216368846	76
5	1364191	227.822723505772	76
5	1364475	227.843710314474	76
5	1364557	227.850823374604	76
5	1364700	227.862531215036	76
5	1364924	227.895227398541	76
5	1365579	228.001995987974	76
5	1365828	228.017553771672	76
5	1365925	228.0227684388	76
5	1366006	228.027663105928	76
5	1366218	228.039037625892	76
5	1366851	228.065594461776	76
5	1366975	228.071815466789	76
5	1367212	228.083488984203	76
5	1367510	228.105756810754	76
5	1367565	228.112751272049	76
5	1367795	228.214774207589	76
5	1368079	228.259449668998	76
5	1368316	228.359973296603	76
5	1368371	228.365778483533	76
5	1368653	228.444448648005	76
5	1368927	228.470740819628	76
5	1369051	228.485576504994	76
5	1369286	228.53353610361	76
5	1369583	228.57567606882	76
5	1369710	228.588047376456	76
5	1370015	228.614843439479	76
5	1370211	228.635143381509	76
5	1370370	228.651026450104	76
5	1370833	228.690786467661	76
5	1371253	228.714933813432	76
5	1371403	228.729571818105	76
5	1371511	228.741471268658	76
5	1371575	228.772016488872	76
5	1371761	228.809608579219	76
5	1372228	228.885455358938	76
5	1372322	228.892305559755	76
5	1372541	228.908766771398	76
5	1372754	228.937947054079	76
5	1373331	229.048949825133	76
5	1373617	229.067522575534	76
5	1373768	229.087390820395	76
5	1374090	229.132617530946	76
5	1374153	229.153350561535	76
5	1374489	229.175470588378	76
5	1374677	229.187752667327	76
5	1374914	229.199251240053	76
5	1375028	229.206625138584	76
5	1375408	229.232450772232	76
5	1375476	229.237331788319	76
5	1375785	229.29079464454	76
5	1376043	229.325944084973	76
5	1376182	229.337187819273	76
5	1376318	229.351550719633	76
5	1376460	229.371731124308	76
5	1376802	229.49715566093	76
5	1376931	229.51041094823	76
5	1377407	229.54193056268	76
5	1377466	229.549092294776	76
5	1377650	229.634885577337	76
5	1378014	229.754487203147	76
5	1378072	229.761285539897	76
5	1378313	229.859847990719	76
5	1378698	230.056742430023	76
5	1378929	230.088297480598	76
5	1379297	230.183001931896	76
5	1379527	230.213243161492	76
5	1379711	230.257404440589	76
5	1380039	230.366814651054	76
5	1380151	230.379678490575	76
5	1380218	230.417991996937	76
5	1380405	230.448654932797	76
5	1380900	230.552695905923	76
5	1380984	230.558956344156	76
5	1381113	230.56733934677	76
5	1381430	230.59937088467	76
5	1381702	230.663754526646	76
5	1381883	230.753872628157	76
5	1382063	230.768351167715	76
5	1382350	230.789793963171	76
5	1382473	230.805163458509	76
5	1382845	230.877215951363	76
5	1383128	230.8892908563	76
5	1383307	230.898661475064	76
5	1383458	230.91214025428	76
5	1383703	230.938218076635	76
5	1383936	230.961151164857	76
5	1383993	230.966861768691	76
5	1384627	231.107354296813	76
5	1384968	231.122238030768	76
5	1385128	231.128412697896	76
5	1385317	231.134284154859	76
5	1385586	231.158149725368	76
5	1385706	231.171556887372	76
5	1386007	231.203098160196	76
5	1386204	231.223241605409	76
5	1386602	231.300356567694	76
5	1386788	231.315255194812	76
5	1387319	231.347920667815	76
5	1387441	231.353514698436	76
5	1387520	231.359049365564	76
5	1387726	231.372512040495	76
5	1388026	231.388769662885	76
5	1388223	231.401798697538	76
5	1388302	231.411583947962	76
5	1388572	231.486021323558	76
5	1389056	231.569997272352	76
5	1389178	231.583781749433	76
5	1389807	231.617113081483	76
5	1389930	231.624493637389	76
5	1390362	231.649063426088	76
5	1390501	231.659422708213	76
5	1390597	231.665807259905	76
5	1390914	231.688330705284	76
5	1391100	231.700675433169	76
5	1391220	231.711615929947	76
5	1391668	231.825930470074	76
5	1391729	231.838329573913	76
5	1392072	231.888592519221	76
5	1392221	231.987170104678	76
5	1392600	232.008308285384	76
5	1392699	232.020587064008	76
5	1392952	232.067993007352	76
5	1393092	232.084410476405	76
5	1393532	232.13417438364	76
5	1393976	232.165921927474	76
5	1394186	232.181134427262	76
5	1394307	232.193849703743	76
5	1394532	232.222524197136	76
5	1394631	232.243731479631	76
5	1394983	232.319896797455	76
5	1395165	232.335364629069	76
5	1395457	232.36250784104	76
5	1395785	232.397201733909	76
5	1396022	232.427460583844	76
5	1396251	232.492077870484	76
5	1396416	232.561803671555	76
5	1396570	232.621054975579	76
5	1396727	232.659249434333	76
5	1397212	232.696738810498	76
5	1397551	232.717804494848	76
5	1397854	232.738047049146	76
5	1398102	232.756377372681	76
5	1398442	232.797814535648	76
5	1398618	232.817231878013	76
5	1398833	232.89035269413	76
5	1399139	232.915459681861	76
5	1399348	232.941824315266	76
5	1399533	232.966303425165	76
5	1400149	233.108952304964	76
5	1400298	233.119428823162	76
5	1400781	233.147434618025	76
5	1400852	233.152785897927	76
5	1401057	233.180036833041	76
5	1401227	233.320291429149	76
5	1401541	233.454905676664	76
5	1401728	233.487566787909	76
5	1402062	233.527606104804	76
5	1402242	233.576068843775	76
5	1402369	233.618819030919	76
5	1402948	233.665873983671	76
5	1403051	233.671229794967	76
5	1403255	233.686113929553	76
5	1403447	233.705679814834	76
5	1403773	233.725885941182	76
5	1403905	233.733737670119	76
5	1404395	233.766339599663	76
5	1404524	233.772481889458	76
5	1404618	233.778007319747	76
5	1404980	233.800137396722	76
5	1405040	233.805414345792	76
5	1405100	233.810958632756	76
5	1405344	233.83018039188	76
5	1405390	233.834733508595	76
5	1405623	233.880321909283	76
5	1406075	234.083133305677	76
5	1406212	234.100122953315	76
5	1406466	234.12312484401	76
5	1406651	234.153604133353	76
5	1406823	234.201196161604	76
5	1407012	234.245766532667	76
5	1407180	234.265153375854	76
5	1407468	234.29169262095	76
5	1407756	234.305716181998	76
5	1408135	234.322680670715	76
5	1408367	234.339377292237	76
5	1408598	234.353521371138	76
5	1408919	234.380198199508	76
5	1408978	234.387332866636	76
5	1409205	234.457688605871	76
5	1409701	234.538135082895	76
5	1409828	234.551001901049	76
5	1410063	234.638982726402	76
5	1410413	234.702888551186	76
5	1410559	234.720758271713	76
5	1410679	234.748924931791	76
5	1410950	234.838163032221	76
5	1411062	234.851686226895	76
5	1411267	234.890474790579	76
5	1411473	234.91651999193	76
5	1411600	234.946908616844	76
5	1411866	234.978699424511	76
5	1412041	234.992171743982	76
5	1412397	235.03048821375	76
5	1412526	235.046647702059	76
5	1412695	235.081448222063	76
5	1412823	235.098473076345	76
5	1413254	235.123862071602	76
5	1413382	235.130638854796	76
5	1413604	235.145431227601	76
5	1413664	235.150420445821	76
5	1413985	235.205224339611	76
5	1414106	235.221386386039	76
5	1414375	235.26334394259	76
5	1414488	235.275368694486	76
5	1414704	235.326722397006	76
5	1414910	235.364879097969	76
5	1415066	235.457351207691	76
5	1415285	235.478674675952	76
5	1415512	235.510625915762	76
5	1415569	235.51712058289	76
5	1415935	235.58612472092	76
5	1416306	235.621870590835	76
5	1416394	235.631069508813	76
5	1416612	235.660902512582	76
5	1417090	235.718032272758	76
5	1417328	235.732075289365	76
5	1417371	235.737548962676	76
5	1417680	235.781336828671	76
5	1417988	235.80002484115	76
5	1418132	235.816502348663	76
5	1418552	235.859522557441	76
5	1419023	235.886441708054	76
5	1419114	235.892051391453	76
5	1419236	235.906275649788	76
5	1419472	235.947138262504	76
5	1419655	235.965854600381	76
5	1419882	236.007466124931	76
5	1420077	236.032717330628	76
5	1420339	236.060771142267	76
5	1420695	236.113035633417	76
5	1420895	236.127323236438	76
5	1421062	236.145149764462	76
5	1421390	236.188193833491	76
5	1421511	236.202182341349	76
5	1421570	236.208891590203	76
5	1421756	236.255660222002	76
5	1422106	236.318920537371	76
5	1422151	236.323861486759	76
5	1422279	236.399217568406	76
5	1422446	236.410046715871	76
5	1422656	236.433274794156	76
5	1422699	236.438169461284	76
5	1422795	236.462925658977	76
5	1423032	236.484894984458	76
5	1423090	236.491477572459	76
5	1423330	236.590578159432	76
5	1423550	236.619123152753	76
5	1423675	236.649459565151	76
5	1423969	236.727848664826	76
5	1424125	236.749827951917	76
5	1424189	236.761877008961	76
5	1424518	236.79855499796	76
5	1424784	236.832827011331	76
5	1424967	236.857922613915	76
5	1425199	236.909970262508	76
5	1425297	236.918565788555	76
5	1425431	236.936989750541	76
5	1425555	237.006804844439	76
5	1425741	237.04547149554	76
5	1425923	237.078958949548	76
5	1426163	237.121655702981	76
5	1426438	237.191093632716	76
5	1426560	237.207377573941	76
5	1426973	237.247299843795	76
5	1427497	237.265910832072	76
5	1427597	237.270587396248	76
5	1427903	237.286059366008	76
5	1427987	237.292245828816	76
5	1428408	237.325819918695	76
5	1429083	237.35626386743	76
5	1429212	237.36326700236	76
5	1429271	237.367987534687	76
5	1429323	237.37312666187	76
5	1429381	237.379598201815	76
5	1429618	237.426700230994	76
5	1430062	237.516539931266	76
5	1430106	237.520968943174	76
5	1430243	237.550338680352	76
5	1430469	237.582476393721	76
5	1430686	237.619822008892	76
5	1430963	237.649985559769	76
5	1431454	237.677300256983	76
5	1431806	237.696665532508	76
5	1431914	237.706444612504	76
5	1432148	237.768679613955	76
5	1432305	237.787310986812	76
5	1432349	237.79284565394	76
5	1432609	237.831848094296	76
5	1432905	237.869698750973	76
5	1433026	237.884964139765	76
5	1433439	237.940826372441	76
5	1433613	237.947253228986	76
5	1434184	237.975729732884	76
5	1434298	237.983849361439	76
5	1434378	237.99267451971	76
5	1434658	238.088654391279	76
5	1434914	238.121432186284	76
5	1435130	238.149705537672	76
5	1435899	238.203845151901	76
5	1436284	238.231250485122	76
5	1436360	238.239340332928	76
5	1436583	238.271317150985	76
5	1436806	238.310213265513	76
5	1437046	238.34166741773	76
5	1437512	238.398715989054	76
5	1438004	238.436453773955	76
5	1438066	238.443290933048	76
5	1438187	238.458827642077	76
5	1438367	238.487995758077	76
5	1438547	238.545994739121	76
5	1438730	238.644411725527	76
5	1439006	238.711912662778	76
5	1439455	238.76624844577	76
5	1439785	238.790591983298	76
5	1440167	238.812354827714	76
5	1440712	238.833794063779	76
5	1441027	238.842211843297	76
5	1441217	238.850653910982	76
5	1441566	238.868770237094	76
5	1441726	238.883337413559	76
5	1441864	238.901892240341	76
5	1442071	238.950902285406	76
5	1442318	239.034707265556	76
5	1442499	239.053975438659	76
5	1442683	239.067489902343	76
5	1442855	239.086766917407	76
5	1443115	239.172606186359	76
5	1443417	239.200438538136	76
5	1443759	239.228637020225	76
5	1443804	239.234192966848	76
5	1444055	239.27523411173	76
5	1444302	239.326486820709	76
5	1444470	239.345892436265	76
5	1444652	239.377031872638	76
5	1444835	239.41333101805	76
5	1445019	239.438083084741	76
5	1445096	239.499108981314	76
5	1445315	239.528497544476	76
5	1445609	239.57073672114	76
5	1445948	239.602214962295	76
5	1446143	239.625750062851	76
5	1446446	239.783400277132	76
5	1446563	239.79829260454	76
5	1446979	239.833933946218	76
5	1447126	239.844699227859	76
5	1447281	239.868909480901	76
5	1447444	239.908207387498	76
5	1448060	239.952899574359	76
5	1448227	239.967832444371	76
5	1448422	239.98192872928	76
5	1448535	239.994635788002	76
5	1448906	240.062583180658	76
5	1449077	240.078358067679	76
5	1449436	240.109612959538	76
5	1449608	240.124699509321	76
5	1449929	240.146351302109	76
5	1449973	240.151050389368	76
5	1450071	240.207030670423	76
5	1450296	240.286058344781	76
5	1450556	240.302896382731	76
5	1450692	240.317243028372	76
5	1450859	240.33762041846	76
5	1450984	240.383791145652	76
5	1451239	240.490956874869	76
5	1451303	240.556606517125	76
5	1451643	240.58934850599	76
5	1451833	240.605273751682	76
5	1452013	240.626522111715	76
5	1452658	240.680997338814	76
5	1452828	240.696347457209	76
5	1452879	240.701242124337	76
5	1453090	240.719337167227	76
5	1453213	240.733729363763	76
5	1453689	240.762716348626	76
5	1453840	240.771713490852	76
5	1453940	240.821149819029	76
5	1454263	240.872153561275	76
5	1454463	240.884901375669	76
5	1454692	240.929173169437	76
5	1454871	240.964589723128	76
5	1455381	241.003175101666	76
5	1455492	241.015862468614	76
5	1455548	241.022037135742	76
5	1455817	241.073810315679	76
5	1456152	241.102681987014	76
5	1456237	241.107921581301	76
5	1456505	241.130414241158	76
5	1457038	241.201359085398	76
5	1457360	241.213723752526	76
5	1457828	241.238657323409	76
5	1457885	241.244421937613	76
5	1458010	241.273438303696	76
5	1458364	241.402654063709	76
5	1458439	241.413714842472	76
5	1458633	241.439430244782	76
5	1458898	241.503885562487	76
5	1459136	241.590358017277	76
5	1459609	241.664708064809	76
5	1459701	241.669352540496	76
5	1459856	241.685352118079	76
5	1459920	241.716728705337	76
5	1460227	241.788661989142	76
5	1460397	241.848714958616	76
5	1460608	241.863166171997	76
5	1460719	241.87431831571	76
5	1461063	241.920553746154	76
5	1461329	241.935184408677	76
5	1461594	241.958567982957	76
5	1461650	241.96428444692	76
5	1461958	242.004802939372	76
5	1462176	242.018893979176	76
5	1462448	242.036834844962	76
5	1462698	242.054802555095	76
5	1462944	242.07882909454	76
5	1463021	242.088020149143	76
5	1463244	242.123063462261	76
5	1463367	242.142887459318	76
5	1463627	242.192752950905	76
5	1463778	242.207182198436	76
5	1464000	242.221556850015	76
5	1464175	242.237184453306	76
5	1464644	242.272769324481	76
5	1464704	242.27996213389	76
5	1465103	242.330005371864	76
5	1465249	242.346295794133	76
5	1465343	242.353110461261	76
5	1465649	242.377036593335	76
5	1465830	242.417473617994	76
5	1466089	242.477488991326	76
5	1466370	242.559522370982	76
5	1466463	242.572134918126	76
5	1466695	242.604551568661	76
5	1467639	242.752798397747	76
5	1467958	242.814419877369	76
5	1468191	242.892631851183	76
5	1468549	242.935411445588	76
5	1468691	242.9517053123	76
5	1468847	243.002655628671	76
5	1469230	243.046519009748	76
5	1469780	243.081614293975	76
5	1470055	243.105008094578	76
5	1470459	243.184644615438	76
5	1471208	243.236599240541	76
5	1471258	243.241848325829	76
5	1471545	243.264614355472	76
5	1471616	243.270851076324	76
5	1471723	243.372493927649	76
5	1472181	243.474951930292	76
5	1472545	243.497238751743	76
5	1472786	243.516433418871	76
5	1473014	243.564344048756	76
5	1473281	243.595700866524	76
5	1473396	243.634118656237	76
5	1473808	243.810170441082	76
5	1474141	243.835567688157	76
5	1474282	243.853735985407	76
5	1474517	243.875446439774	76
5	1474643	243.890613707322	76
5	1474906	244.016912822915	76
5	1475133	244.046713635647	76
5	1475693	244.182918855045	76
5	1475754	244.19568346742	76
5	1475977	244.23010987991	76
5	1476359	244.272118163278	76
5	1476707	244.294976003861	76
5	1477127	244.326166791394	76
5	1477283	244.34178158834	76
5	1477571	244.431271439026	76
5	1477910	244.476428932827	76
5	1478040	244.496477927823	76
5	1478163	244.511923688228	76
5	1478297	244.574303593279	76
5	1478513	244.58886201493	76
5	1478718	244.608565234794	76
5	1478859	244.642584596904	76
5	1479231	244.687398897138	76
5	1479430	244.699335804718	76
5	1479732	244.719643558881	76
5	1480024	244.735525938497	76
5	1480285	244.754462171793	76
5	1480424	244.771301589487	76
5	1480612	244.797469036096	76
5	1480812	244.892801219497	76
5	1481733	244.949363843303	76
5	1481935	244.957464467425	76
5	1482206	244.969858132232	76
5	1482424	244.985694111279	76
5	1482514	244.999858510141	76
5	1482842	245.131762185986	76
5	1482900	245.138216521712	76
5	1483026	245.155781237866	76
5	1483209	245.22265044988	76
5	1483715	245.299457997297	76
5	1483839	245.311970204915	76
5	1483978	245.330872870373	76
5	1484207	245.408111228781	76
5	1484373	245.427026315496	76
5	1484435	245.47967881924	76
5	1484617	245.510213384867	76
5	1484803	245.54972415139	76
5	1485205	245.595307451707	76
5	1485250	245.600842118835	76
5	1485376	245.633215197957	76
5	1485825	245.682566310931	76
5	1486101	245.703004313664	76
5	1486192	245.70877478653	76
5	1486369	245.730266315424	76
5	1486640	245.76246702759	76
5	1487010	245.790247588819	76
5	1487382	245.816229266102	76
5	1488218	245.849949708392	76
5	1488322	245.856610347648	76
5	1488530	245.889096412577	76
5	1488755	245.928599468388	76
5	1489002	246.095305653357	76
5	1489171	246.114667693211	76
5	1489429	246.160904505189	76
5	1489615	246.187025855993	76
5	1489833	246.228585321209	76
5	1490276	246.26263754561	76
5	1490385	246.276757633336	76
5	1490734	246.311565840908	76
5	1490978	246.334287536451	76
5	1491273	246.365106409633	76
5	1491518	246.382352904375	76
5	1491845	246.411255361036	76
5	1491902	246.41884040642	76
5	1492027	246.448849897412	76
5	1492332	246.487449448009	76
5	1492649	246.504907182416	76
5	1492833	246.513027741975	76
5	1493494	246.555655395471	76
5	1493613	246.563626952684	76
5	1493818	246.582549619812	76
5	1494021	246.605310468419	76
5	1494251	246.686542635442	76
5	1494501	246.733345676015	76
5	1494623	246.747697372922	76
5	1494687	246.784911057583	76
5	1495000	246.82176702137	76
5	1495242	246.856687790474	76
5	1495449	246.889179696132	76
5	1495679	246.901109184393	76
5	1495868	246.914241279786	76
5	1496125	246.949087176605	76
5	1496307	246.971325088849	76
5	1496458	247.016324926414	76
5	1496959	247.040802722381	76
5	1497136	247.049451415715	76
5	1497409	247.067059586186	76
5	1497487	247.077702994416	76
5	1497847	247.120832779523	76
5	1497964	247.130027118574	76
5	1498134	247.149674562223	76
5	1498689	247.252317666559	76
5	1498899	247.262681051233	76
5	1498955	247.267869400599	76
5	1499155	247.292214670596	76
5	1499454	247.370523377854	76
5	1499593	247.387245896421	76
5	1499716	247.435171261937	76
5	1500041	247.488691433903	76
5	1500513	247.515343116437	76
5	1500656	247.531845105881	76
5	1501145	247.617854585401	76
5	1501205	247.624795227707	76
5	1501497	247.651846881271	76
5	1501597	247.657061548399	76
5	1502061	247.70234318235	76
5	1502149	247.712248309488	76
5	1502336	247.729639327867	76
5	1502462	247.747072061219	76
5	1502800	247.805677583089	76
5	1503005	247.832715570413	76
5	1503203	247.891221944471	76
5	1503589	247.924166039263	76
5	1503752	247.937023724573	76
5	1503797	247.942031068269	76
5	1504644	248.02591152376	76
5	1504788	248.037958104748	76
5	1504849	248.046430190888	76
5	1505322	248.088484210085	76
5	1505559	248.109572872265	76
5	1505627	248.116707539393	76
5	1505843	248.145483521274	76
5	1506095	248.197093138402	76
5	1506472	248.226341064001	76
5	1506586	248.233795890783	76
5	1506723	248.252088039145	76
5	1507056	248.309501343035	76
5	1507110	248.315672044365	76
5	1507344	248.41918651496	76
5	1507751	248.542462738156	76
5	1507934	248.554645486645	76
5	1508256	248.624189636517	76
5	1508540	248.721560719517	76
5	1508751	248.758707686587	76
5	1509068	248.784926054611	76
5	1509344	248.812709288104	76
5	1509386	248.817586503721	76
5	1509446	248.829439955232	76
5	1509672	248.921446751514	76
5	1509877	248.946495403838	76
5	1509996	248.964698359599	76
5	1510447	249.015369496555	76
5	1510518	249.020158583684	76
5	1510638	249.035298355607	76
5	1510903	249.098977048887	76
5	1511319	249.144231442319	76
5	1511395	249.15371162689	76
5	1511492	249.221043174851	76
5	1512027	249.269755619098	76
5	1512208	249.327689832425	76
5	1512334	249.450422445089	76
5	1512799	249.486478245928	76
5	1512875	249.494851221841	76
5	1512936	249.503052640559	76
5	1513094	249.546809037448	76
5	1513218	249.651219567481	76
5	1513401	249.689770066772	76
5	1514160	249.753588646063	76
5	1514310	249.766805660299	76
5	1514398	249.772660327427	76
5	1514453	249.778480056543	76
5	1514798	249.863284103519	76
5	1515028	249.900870515815	76
5	1515152	249.922496457611	76
5	1515383	249.952336740627	76
5	1515726	249.998239507286	76
5	1516236	250.035067283909	76
5	1516528	250.058721008623	76
5	1516753	250.080530193013	76
5	1517199	250.155782474725	76
5	1517495	250.170330625597	76
5	1517651	250.183877179155	76
5	1518262	250.251360528741	76
5	1518704	250.270082010547	76
5	1519111	250.291236302562	76
5	1519302	250.304080152727	76
5	1519361	250.311413191481	76
5	1519660	250.354914956885	76
5	1519800	250.371956560719	76
5	1520443	250.402488034345	76
5	1520660	250.413049615322	76
5	1520791	250.426056461695	76
5	1521247	250.498170626102	76
5	1521527	250.524428509529	76
5	1521649	250.536866616499	76
5	1521978	250.554603073371	76
5	1522177	250.568552536601	76
5	1522701	250.595349012562	76
5	1523517	250.638532976472	76
5	1523709	250.652347309285	76
5	1523823	250.660760139814	76
5	1523932	250.673725269919	76
5	1524400	250.719941079955	76
5	1524489	250.728432417341	76
5	1524817	250.775283898681	76
5	1525193	250.878617018009	76
5	1525421	250.902405507848	76
5	1525688	250.929575968485	76
5	1525940	250.954282883569	76
5	1526127	250.974549760731	76
5	1526220	250.986783964116	76
5	1526391	251.025324680903	76
5	1526709	251.051183892972	76
5	1526752	251.055808134826	76
5	1526952	251.081081698446	76
5	1527364	251.117917400738	76
5	1527501	251.133223203559	76
5	1527923	251.265316585495	76
5	1528134	251.280570982205	76
5	1528259	251.295115036159	76
5	1528543	251.361186987336	76
5	1528910	251.423866191914	76
5	1529169	251.449749516372	76
5	1529447	251.478651856476	76
5	1529833	251.507860299218	76
5	1529954	251.51660835784	76
5	1530449	251.561958525587	76
5	1530569	251.57044464701	76
5	1530679	251.582391825279	76
5	1531118	251.65680120182	76
5	1531327	251.669534109188	76
5	1531787	251.703080021183	76
5	1531889	251.708614688311	76
5	1532024	251.721618505288	76
5	1532240	251.7533262432	76
5	1532527	251.77348552539	76
5	1532647	251.78614426885	76
5	1532995	251.833126837582	76
5	1533381	251.871133532176	76
5	1533480	251.88362633545	76
[...]
850	2608238	412.760487380529	0.84883720930233
850	2608868	412.804906867937	0.86046511627907
850	2610150	413.036311623243	0.85057471264368
850	2610794	413.086443110651	0.86206896551724
850	2612009	413.327575901091	0.85227272727273
850	2612554	413.359777388499	0.86363636363636
850	2613738	413.824032016367	0.85393258426966
850	2614409	413.860503503775	0.86516853932584
850	2632022	416.205942148279	0.85555555555556
850	2632627	416.244333635687	0.86666666666667
850	2635312	416.807435035162	0.85714285714286
850	2636028	416.86407652257	0.86813186813187
850	2650880	418.952767230555	0.85869565217391
850	2651598	419.007168717963	0.8695652173913
850	2657790	419.971307545348	0.86021505376344
850	2658466	420.016529032756	0.87096774193548
850	2672101	421.891881406411	0.86170212765957
850	2672745	421.951016893819	0.87234042553191
850	2679821	422.803046951273	0.86315789473684
850	2680164	422.838702438681	0.87368421052632
850	2688848	423.782423554146	0.86458333333333
850	2689187	423.817185041554	0.875
850	2698844	425.341175658369	0.8659793814433
850	2699140	425.386397145777	0.87628865979381
850	2699579	425.460092558803	0.86734693877551
850	2699961	425.514208046211	0.87755102040816
850	2710119	427.248602625565	0.86868686868687
850	2710622	427.284434112973	0.87878787878788
850	2718089	428.588524533148	0.87
850	2718710	428.637696020556	0.88
860	1310984	220.372747885094	76
860	1321507	221.777512387751	76
860	1324603	222.137302512186	76
860	1329420	223.050333141434	76
860	1336791	224.248094881455	76
860	1343653	225.224273323123	76
860	1385713	231.180260148197	76
860	1393207	232.11292897005	76
860	1394648	232.283313171857	76
860	1408983	234.425487148659	76
860	1414113	235.239967237274	76
860	1420593	236.10739830725	76
860	1427377	237.262988461483	76
860	1446148	239.74137881992	76
860	1449469	240.115749844897	76
860	1468907	243.018270836763	76
860	1470180	243.161563783329	76
860	1481374	244.935107052929	76
860	1484637	245.537323327367	76
860	1490386	246.281662079239	76
860	1515918	250.010829551411	76
860	1519962	250.381475004483	76
860	1520842	250.469301159287	76
860	1529334	251.471068842006	76
860	1533704	251.899524276815	76
860	1575788	258.014262127075	76
860	1618478	264.695806666035	76
860	1640506	268.825138626267	76
860	1650310	270.295900796908	76
860	1651985	270.485430031603	76
860	1652555	270.582789884991	76
860	1663729	272.921445219589	76
860	1675075	274.481578232203	76
860	1694529	276.953756133362	76
860	1699373	277.277408135745	76
860	1705800	278.430873466944	76
860	1707814	278.620979449718	76
860	1721317	280.712035520523	76
860	1723474	280.87258021965	76
860	1724878	281.064572563556	76
860	1731324	281.712201726835	76
860	1747486	284.249580201127	76
860	1755274	285.153838752844	76
860	1756352	285.44764014453	76
860	1757961	285.664604086346	76
860	1767307	287.339481267362	76
860	1773875	288.134628856463	76
860	1784168	289.678422934458	76
860	1785049	289.742784251441	76
860	1808544	293.441113383886	76
860	1868348	301.339225443991	76
860	1874345	302.19222242714	76
860	1883641	303.598628929868	76
860	1885564	303.752433481716	76
860	1906161	306.377977599833	76
860	1914692	307.734673860458	76
860	1915270	307.814237822892	76
860	1921136	309.220447719731	76
860	1940278	311.981399569451	76
860	1964695	315.172200792014	76
860	1974796	316.775147368926	76
860	1977898	317.179933037451	76
860	1990066	319.295555959351	76
860	1995177	319.799850079595	76
860	2002727	320.818034450518	76
860	2018317	323.091825158439	76
860	2024705	324.153121517329	76
860	2026730	324.344321234544	76
860	2033469	325.49983292981	76
860	2037373	326.136659115955	76
860	2046715	327.345211787113	76
860	2055758	329.068861943045	76
860	2061121	330.017303629783	76
860	2087975	334.527846917769	76
860	2088041	334.53357586091	76
860	2130381	340.74465927665	76
860	2144008	342.630325188519	76
860	2159798	345.150868634805	76
860	2179367	347.483011111867	76
860	2185658	348.565561702567	76
860	2193746	349.928777717011	76
860	2196469	350.444461486339	76
860	2229289	355.282541186873	76
860	2236083	356.468902187621	76
860	2254354	360.144043909653	76
860	2262049	361.422936512624	76
860	2265903	361.983052461486	76
860	2302805	366.909441247015	76
860	2308331	367.789357813323	76
860	2331793	371.431446552093	76
860	2386249	380.630036829618	76
860	2399156	382.06608773284	76
860	2413520	384.027758013299	76
860	2430719	386.392859865801	76
860	2457773	390.318284866855	76
860	2464262	391.560720765416	76
860	2473604	392.810641580851	76
860	2481794	393.884398806085	76
860	2485822	394.515374110554	76
860	2486873	394.66998769131	76
862	1311316	220.403349342306	76
862	1322043	221.814031844963	76
862	1325366	222.181563969398	76
862	1330016	223.113164598646	76
862	1337629	224.300784815829	76
862	1343882	225.257754780335	76
862	1386204	231.223241605409	76
862	1394186	232.181134427262	76
862	1395165	232.335364629069	76
862	1409205	234.457688605871	76
862	1414488	235.275368694486	76
862	1421062	236.145149764462	76
862	1428408	237.325819918695	76
862	1446446	239.783400277132	76
862	1449929	240.146351302109	76
862	1469780	243.081614293975	76
862	1471208	243.236599240541	76
862	1482514	244.999858510141	76
862	1485205	245.595307451707	76
862	1490978	246.334287536451	76
862	1516528	250.058721008623	76
862	1520791	250.426056461695	76
862	1521649	250.536866616499	76
862	1529833	251.507860299218	76
862	1534428	251.948423734027	76
862	1576415	258.047743584287	76
862	1618875	264.734198123247	76
862	1640838	268.863210083479	76
862	1650714	270.32714225412	76
862	1652549	270.527021488815	76
862	1653097	270.638773342203	76
862	1664297	272.973640676801	76
862	1675586	274.531069689415	76
862	1695156	276.994641590574	76
862	1699779	277.318469592957	76
862	1706321	278.476734924156	76
862	1725278	281.096134020768	76
862	1732178	281.763695184047	76
862	1747849	284.281781658339	76
862	1755535	285.189670210056	76
862	1756588	285.480161601742	76
862	1767793	287.392956724574	76
862	1774833	288.196643647931	76
862	1784904	289.729951857761	76
862	1809110	293.477632841098	76
862	1868796	301.373346901203	76
862	1874659	302.224103884352	76
862	1884709	303.681822964669	76
862	1885822	303.790504938928	76
862	1906496	306.408899057045	76
862	1915097	307.76847531767	76
862	1915529	307.854229280104	76
862	1940963	312.028827693791	76
862	1964917	315.204402249226	76
862	1975133	316.807988826138	76
862	1978672	317.237850494663	76
862	1990582	319.338537416563	76
862	1995821	319.845229536807	76
862	2018988	323.147070473533	76
862	2025413	324.204304974541	76
862	2033743	325.531714387022	76
862	2047108	327.389827244325	76
862	2056151	329.101703400257	76
862	2061465	330.066299086995	76
862	2088900	334.603638861118	76
862	2089107	334.616643528246	76
862	2130727	340.775580733862	76
862	2144646	342.685414645731	76
862	2160899	345.225033810778	76
862	2180314	347.528758569079	76
862	2186108	348.612317159779	76
862	2194524	349.979549174223	76
862	2196801	350.476982943551	76
862	2229756	355.319012644085	76
862	2236464	356.518107644833	76
862	2254625	360.177845366865	76
862	2262323	361.459871969836	76
862	2266530	362.032863918698	76
862	2303663	366.962242704227	76
862	2309022	367.856184017332	76
862	2332912	371.482538009305	76
862	2386692	380.66746828683	76
862	2399650	382.112909190052	76
862	2414073	384.067363470511	76
862	2431498	386.441277323013	76
862	2458110	390.355716324067	76
862	2464558	391.590682222628	76
862	2474241	392.859317038063	76
862	2482178	393.923430263297	76
862	2486391	394.558355567766	76
862	2487478	394.707787148522	76
863	5495	30	76
863	19789	30.966408245355	76
863	30804	32.265204541883	76
863	31025	32.286071856878	76
863	35970	32.937693033832	76
863	54471	35.657532225951	76
863	89915	40.75140824049	76
863	97705	41.78150517996	76
863	101469	42.302740265934	76
863	123188	45.41975934085	76
863	157741	50.813284923805	76
863	196356	56.155888628561	76
863	206386	57.999298730386	76
863	207812	58.132566173299	76
863	233473	62.013183642032	76
863	234058	62.116186886751	76
863	246596	64.213901783	76
863	253433	65.226448212573	76
863	253551	65.245310717742	76
863	258443	66.252695885724	76
863	268136	67.785607560809	76
863	271555	68.275808174221	76
863	307461	73.657343260702	76
863	310717	74.031001340354	76
863	311251	74.122295776601	76
863	377281	84.565448646375	76
863	383555	85.062048318175	76
863	390406	85.976846636326	76
863	392712	86.341189745731	76
863	401779	87.558445144406	76
863	403964	87.972539179688	76
863	414118	89.258722901053	76
863	437280	92.600552494062	76
863	458556	95.258885687247	76
863	477849	98.26615844835	76
863	487537	99.599592695716	76
863	496675	100.778795677307	76
863	516072	103.545944985338	76
863	523800	104.634174061954	76
863	537587	106.800019910371	76
863	562869	111.312649556638	76
863	578217	113.580959284101	76
863	578590	113.608172264147	76
863	580608	113.846236815413	76
863	583266	113.99310728185	76
863	607707	118.380730959059	76
863	613441	118.999587829968	76
863	660718	125.450905333701	76
863	661329	125.511487446179	76
863	666007	126.007151868603	76
863	702387	131.895915257052	76
863	703278	131.98908482157	76
863	711154	133.130206496199	76
863	729734	135.380153281356	76
863	740581	137.191203641084	76
863	780570	143.379752948532	76
863	795572	145.207269836269	76
863	799930	146.115148860421	76
863	814979	148.867111565572	76
863	825371	150.605688919149	76
863	828311	151.01293777678	76
863	828325	151.016747537733	76
863	839588	152.667141993398	76
863	845385	153.72657232467	76
863	849339	154.218450655452	76
863	858800	155.251018345271	76
863	860823	155.443765274893	76
863	862951	155.751012922231	76
863	870909	157.105492777808	76
863	886565	159.402623684685	76
863	921383	164.195621654292	76
863	929412	165.559399575074	76
863	930752	165.783638912416	76
863	949818	168.803598484322	76
863	967961	171.042833389278	76
863	978613	172.981468497638	76
863	1004085	176.692214300259	76
863	1006098	177.057597338221	76
863	1013894	178.348249625306	76
863	1095381	190.405484464929	76
863	1122382	194.233404193823	76
863	1147773	197.64659536562	76
863	1154567	198.516952653953	76
863	1156552	198.667605129869	76
863	1157348	198.723975131441	76
863	1176483	201.632098814886	76
863	1200182	204.957502494271	76
863	1209324	206.263933937255	76
863	1223835	207.733282869278	76
863	1273969	214.687606708965	76
863	1282490	215.971720604655	76
863	1285794	216.352846032199	76
863	1297275	218.009307336415	76
863	2509263	398.362946115461	76
863	2518739	399.873889892246	76
863	2519819	399.972604093809	76
863	2522666	400.690914087624	76
863	2534779	402.412150645518	76
863	2554050	404.915190733052	76
863	2556288	405.170128600537	76
863	2573174	407.312095564435	76
863	2574837	407.489008607333	76
863	2584619	409.034238303291	76
863	2593392	410.432332040508	76
863	2599627	411.115808956297	76
863	2620158	414.463017403127	76
863	2624947	415.133492054849	76
863	2647224	418.424135874995	76
863	2659556	420.173012703362	76
863	2681042	423.124808160445	76
863	2683110	423.334926618738	76
863	2687004	423.657104163073	76
863	2688724	423.763197820342	76
863	2689474	423.85030418427	76
863	2708588	427.078992593823	76
863	2732122	430.427552392904	76
863	2734524	430.76150753735	76
863	2737022	431.26653197386	76
863	2744452	432.408628017997	76
863	2746833	432.726265968028	76
863	2751137	433.361084208153	76
863	2766267	435.37744456917	76
863	2779834	437.462173970036	76
863	2793211	439.55697187778	76
863	2795225	439.897309470453	76
863	2795459	439.93304442434	76
863	2798666	440.236782466006	76
863	2815618	442.909291548251	76
863	2820604	443.730722777822	76
863	2838773	446.395405505761	76
863	2856936	449.388611000724	76
863	2899236	455.532877395944	76
863	2904944	456.302200287322	76
863	2907218	456.713837162755	76
863	2912094	457.48737108525	76
863	2916924	458.026265065486	76
863	2955327	463.13960323428	76
863	2979147	466.123808238011	76
863	2993551	467.876758206958	76
863	2997747	468.616811955489	76
863	3001584	469.185532423374	76
863	3007495	469.885722782695	76
863	3027551	472.290253431945	76
863	3034674	473.215885777655	76
863	3052853	475.642846607529	76
863	3061011	476.616504990439	76
863	3074513	478.140498853533	76
863	3091703	480.787929432141	76
863	3110904	484.233601583171	76
864	1310984	220.372747885094	-nan
864	1311316	220.403349342306	1
864	1321507	221.777512387751	0.5
864	1322043	221.814031844963	1
864	1324603	222.137302512186	0.66666666666667
864	1325366	222.181563969398	1
864	1329420	223.050333141434	0.75
864	1330016	223.113164598646	1
864	1336791	224.248094881455	0.8
864	1337629	224.300784815829	1
864	1343653	225.224273323123	0.83333333333333
864	1343882	225.257754780335	1
864	1385713	231.180260148197	0.85714285714286
864	1386204	231.223241605409	1
864	1393207	232.11292897005	0.875
864	1394186	232.181134427262	1
864	1394648	232.283313171857	0.88888888888889
864	1395165	232.335364629069	1
864	1408983	234.425487148659	0.9
864	1409205	234.457688605871	1
864	1414113	235.239967237274	0.90909090909091
864	1414488	235.275368694486	1
864	1420593	236.10739830725	0.91666666666667
864	1421062	236.145149764462	1
864	1427377	237.262988461483	0.92307692307692
864	1428408	237.325819918695	1
864	1446148	239.74137881992	0.92857142857143
864	1446446	239.783400277132	1
864	1449469	240.115749844897	0.93333333333333
864	1449929	240.146351302109	1
864	1468907	243.018270836763	0.9375
864	1469780	243.081614293975	1
864	1470180	243.161563783329	0.94117647058824
864	1471208	243.236599240541	1
864	1481374	244.935107052929	0.94444444444444
864	1482514	244.999858510141	1
864	1484637	245.537323327367	0.94736842105263
864	1485205	245.595307451707	1
864	1490386	246.281662079239	0.95
864	1490978	246.334287536451	1
864	1515918	250.010829551411	0.95238095238095
864	1516528	250.058721008623	1
864	1519962	250.381475004483	0.95454545454545
864	1520791	250.426056461695	1
864	1520842	250.469301159287	0.95652173913043
864	1521649	250.536866616499	1
864	1529334	251.471068842006	0.95833333333333
864	1529833	251.507860299218	1
864	1533704	251.899524276815	0.96
864	1534428	251.948423734027	1
864	1575788	258.014262127075	0.96153846153846
864	1576415	258.047743584287	1
864	1618478	264.695806666035	0.96296296296296
864	1618875	264.734198123247	1
864	1640506	268.825138626267	0.96428571428571
864	1640838	268.863210083479	1
864	1650310	270.295900796908	0.96551724137931
864	1650714	270.32714225412	1
864	1651985	270.485430031603	0.96666666666667
864	1652549	270.527021488815	1
864	1652555	270.582789884991	0.96774193548387
864	1653097	270.638773342203	1
864	1663729	272.921445219589	0.96875
864	1664297	272.973640676801	1
864	1675075	274.481578232203	0.96969696969697
864	1675586	274.531069689415	1
864	1694529	276.953756133362	0.97058823529412
864	1695156	276.994641590574	1
864	1699373	277.277408135745	0.97142857142857
864	1699779	277.318469592957	1
864	1705800	278.430873466944	0.97222222222222
864	1706321	278.476734924156	1
864	1707814	278.620979449718	0.97297297297297
864	1721317	280.712035520523	0.94736842105263
864	1723474	280.87258021965	0.92307692307692
864	1724878	281.064572563556	0.9
864	1725278	281.096134020768	0.925
864	1731324	281.712201726835	0.90243902439024
864	1732178	281.763695184047	0.92682926829268
864	1747486	284.249580201127	0.9047619047619
864	1747849	284.281781658339	0.92857142857143
864	1755274	285.153838752844	0.90697674418605
864	1755535	285.189670210056	0.93023255813953
864	1756352	285.44764014453	0.90909090909091
864	1756588	285.480161601742	0.93181818181818
864	1757961	285.664604086346	0.91111111111111
864	1767307	287.339481267362	0.89130434782609
864	1767793	287.392956724574	0.91304347826087
864	1773875	288.134628856463	0.8936170212766
864	1774833	288.196643647931	0.91489361702128
864	1784168	289.678422934458	0.89583333333333
864	1784904	289.729951857761	0.91666666666667
864	1785049	289.742784251441	0.89795918367347
864	1808544	293.441113383886	0.88
864	1809110	293.477632841098	0.9
864	1868348	301.339225443991	0.88235294117647
864	1868796	301.373346901203	0.90196078431373
864	1874345	302.19222242714	0.88461538461538
864	1874659	302.224103884352	0.90384615384615
864	1883641	303.598628929868	0.88679245283019
864	1884709	303.681822964669	0.90566037735849
864	1885564	303.752433481716	0.88888888888889
864	1885822	303.790504938928	0.90740740740741
864	1906161	306.377977599833	0.89090909090909
864	1906496	306.408899057045	0.90909090909091
864	1914692	307.734673860458	0.89285714285714
864	1915097	307.76847531767	0.91071428571429
864	1915270	307.814237822892	0.89473684210526
864	1915529	307.854229280104	0.91228070175439
864	1921136	309.220447719731	0.89655172413793
864	1940278	311.981399569451	0.88135593220339
864	1940963	312.028827693791	0.89830508474576
864	1964695	315.172200792014	0.88333333333333
864	1964917	315.204402249226	0.9
864	1974796	316.775147368926	0.88524590163934
864	1975133	316.807988826138	0.9016393442623
864	1977898	317.179933037451	0.88709677419355
864	1978672	317.237850494663	0.90322580645161
864	1990066	319.295555959351	0.88888888888889
864	1990582	319.338537416563	0.9047619047619
864	1995177	319.799850079595	0.890625
864	1995821	319.845229536807	0.90625
864	2002727	320.818034450518	0.89230769230769
864	2018317	323.091825158439	0.87878787878788
864	2018988	323.147070473533	0.89393939393939
864	2024705	324.153121517329	0.88059701492537
864	2025413	324.204304974541	0.8955223880597
864	2026730	324.344321234544	0.88235294117647
864	2033469	325.49983292981	0.8695652173913
864	2033743	325.531714387022	0.88405797101449
864	2037373	326.136659115955	0.87142857142857
864	2046715	327.345211787113	0.85915492957746
864	2047108	327.389827244325	0.87323943661972
864	2055758	329.068861943045	0.86111111111111
864	2056151	329.101703400257	0.875
864	2061121	330.017303629783	0.86301369863014
864	2061465	330.066299086995	0.87671232876712
864	2087975	334.527846917769	0.86486486486486
864	2088041	334.53357586091	0.85333333333333
864	2088900	334.603638861118	0.86666666666667
864	2089107	334.616643528246	0.88
864	2130381	340.74465927665	0.86842105263158
864	2130727	340.775580733862	0.88157894736842
864	2144008	342.630325188519	0.87012987012987
864	2144646	342.685414645731	0.88311688311688
864	2159798	345.150868634805	0.87179487179487
864	2160899	345.225033810778	0.88461538461538
864	2179367	347.483011111867	0.87341772151899
864	2180314	347.528758569079	0.88607594936709
864	2185658	348.565561702567	0.875
864	2186108	348.612317159779	0.8875
864	2193746	349.928777717011	0.87654320987654
864	2194524	349.979549174223	0.88888888888889
864	2196469	350.444461486339	0.8780487804878
864	2196801	350.476982943551	0.89024390243902
864	2229289	355.282541186873	0.87951807228916
864	2229756	355.319012644085	0.89156626506024
864	2236083	356.468902187621	0.88095238095238
864	2236464	356.518107644833	0.89285714285714
864	2254354	360.144043909653	0.88235294117647
864	2254625	360.177845366865	0.89411764705882
864	2262049	361.422936512624	0.88372093023256
864	2262323	361.459871969836	0.8953488372093
864	2265903	361.983052461486	0.88505747126437
864	2266530	362.032863918698	0.89655172413793
864	2302805	366.909441247015	0.88636363636364
864	2303663	366.962242704227	0.89772727272727
864	2308331	367.789357813323	0.8876404494382
864	2309022	367.856184017332	0.89887640449438
864	2331793	371.431446552093	0.88888888888889
864	2332912	371.482538009305	0.9
864	2386249	380.630036829618	0.89010989010989
864	2386692	380.66746828683	0.9010989010989
864	2399156	382.06608773284	0.89130434782609
864	2399650	382.112909190052	0.90217391304348
864	2413520	384.027758013299	0.89247311827957
864	2414073	384.067363470511	0.90322580645161
864	2430719	386.392859865801	0.8936170212766
864	2431498	386.441277323013	0.90425531914894
864	2457773	390.318284866855	0.89473684210526
864	2458110	390.355716324067	0.90526315789474
864	2464262	391.560720765416	0.89583333333333
864	2464558	391.590682222628	0.90625
864	2473604	392.810641580851	0.89690721649485
864	2474241	392.859317038063	0.90721649484536
864	2481794	393.884398806085	0.89795918367347
864	2482178	393.923430263297	0.90816326530612
864	2485822	394.515374110554	0.8989898989899
864	2486391	394.558355567766	0.90909090909091
864	2486873	394.66998769131	0.9
864	2487478	394.707787148522	0.91
