version 2
run CSMA-0-20160913-13:08:00-14512
attr beaconInterval 10s
attr configname CSMA
attr datetime 20160913-13:08:00
attr experiment CSMA
attr inifile simulations/omnetpp.ini
attr iterationvars "$packetLength=76B, $sendInt=2, $beaconInterval=10s, $0=10s/2, $1=3 * 10s"
attr iterationvars2 "$packetLength=76B, $sendInt=2, $beaconInterval=10s, $0=10s/2, $1=3 * 10s, $repetition=0"
attr measurement "$packetLength=76B, $sendInt=2, $beaconInterval=10s, $0=10s/2, $1=3 * 10s"
attr network multi_gateway.Net802154MultiGateway
attr packetLength 76B
attr processid 14512
attr repetition 0
attr replication #0
attr resultdir ../results
attr runnumber 0
attr seedset 0
attr sendInt 2
param **.configurator.addStaticRoutes false
param **.dumpRoutes false
param **.dumpTopology false
param **.host[*].**.gpsr.beaconInterval "${beaconInterval = 10s}"
param **.host[*].**.gpsr.maxJitter ${$beaconInterval/2}
param **.host[*].**.gpsr.neighborValidityInterval "${3 * $beaconInterval}"
param **.host[*].**.gpsr.positionByteLength "2 B"
param **.host[*].**.gpsr.routingStrategy "\"StraightestPath\""
param **.host[*].**.trafficgen.continueSendingDummyPackets true
param **.host[*].**.trafficgen.coolDownDuration 15s
param **.host[*].**.trafficgen.destAddresses "\"host[0].wrappedHost(modulepath)\""
param **.host[*].**.trafficgen.packetLength "${packetLength = 76B}"
param **.host[*].**.trafficgen.sendInterval "exponential(${sendInt=1.0..2.5 step 0.25}s)"
param **.host[*].**.trafficgen.warmUpDuration 160s
param **.host[*].**.wlan[*].mac.queueLength 30
param **.host[*].**.wlan[*].macType "\"Ieee802154NarrowbandMac\""
param **.host[*].**.wlan[*].radio.receiver.minInterferencePower "-100 dBm"
param **.host[*].hostType "\"SimpleHost\""
param **.host[*].mobility.distance 80m
param **.host[*].mobilityType "\"StaticConcentricWrappingMobility\""
param **.host[0].**.trafficgen.numPackets 0
param **.host[1..].**.trafficgen.numPackets 100
param **.numHosts 62
param **.radioMedium.rangeFilter "\"interferenceRange\""
param **.routingTable.addressType "\"modulepath\""
param **.routingTableType "\"GenericRoutingTable\""

vector 9  Net802154MultiGateway.host[0].wrappedHost.trafficgen  sentDummyPk:vector(packetBytes)  ETV
attr interpolationmode  none
attr source  sentDummyPk
attr title  "dummy packets sent, vector(packetBytes)"
vector 23  Net802154MultiGateway.host[1].wrappedHost.trafficgen  sentDummyPk:vector(packetBytes)  ETV
attr interpolationmode  none
attr source  sentDummyPk
attr title  "dummy packets sent, vector(packetBytes)"
vector 37  Net802154MultiGateway.host[2].wrappedHost.trafficgen  sentDummyPk:vector(packetBytes)  ETV
attr interpolationmode  none
attr source  sentDummyPk
attr title  "dummy packets sent, vector(packetBytes)"
vector 51  Net802154MultiGateway.host[3].wrappedHost.trafficgen  sentDummyPk:vector(packetBytes)  ETV
attr interpolationmode  none
attr source  sentDummyPk
attr title  "dummy packets sent, vector(packetBytes)"
vector 65  Net802154MultiGateway.host[4].wrappedHost.trafficgen  sentDummyPk:vector(packetBytes)  ETV
attr interpolationmode  none
attr source  sentDummyPk
attr title  "dummy packets sent, vector(packetBytes)"
vector 79  Net802154MultiGateway.host[5].wrappedHost.trafficgen  sentDummyPk:vector(packetBytes)  ETV
attr interpolationmode  none
attr source  sentDummyPk
attr title  "dummy packets sent, vector(packetBytes)"
vector 93  Net802154MultiGateway.host[6].wrappedHost.trafficgen  sentDummyPk:vector(packetBytes)  ETV
attr interpolationmode  none
attr source  sentDummyPk
attr title  "dummy packets sent, vector(packetBytes)"
vector 107  Net802154MultiGateway.host[7].wrappedHost.trafficgen  sentDummyPk:vector(packetBytes)  ETV
attr interpolationmode  none
attr source  sentDummyPk
attr title  "dummy packets sent, vector(packetBytes)"
vector 121  Net802154MultiGateway.host[8].wrappedHost.trafficgen  sentDummyPk:vector(packetBytes)  ETV
attr interpolationmode  none
attr source  sentDummyPk
attr title  "dummy packets sent, vector(packetBytes)"
vector 135  Net802154MultiGateway.host[9].wrappedHost.trafficgen  sentDummyPk:vector(packetBytes)  ETV
attr interpolationmode  none
attr source  sentDummyPk
attr title  "dummy packets sent, vector(packetBytes)"
vector 149  Net802154MultiGateway.host[10].wrappedHost.trafficgen  sentDummyPk:vector(packetBytes)  ETV
attr interpolationmode  none
attr source  sentDummyPk
attr title  "dummy packets sent, vector(packetBytes)"
vector 163  Net802154MultiGateway.host[11].wrappedHost.trafficgen  sentDummyPk:vector(packetBytes)  ETV
attr interpolationmode  none
attr source  sentDummyPk
attr title  "dummy packets sent, vector(packetBytes)"
vector 177  Net802154MultiGateway.host[12].wrappedHost.trafficgen  sentDummyPk:vector(packetBytes)  ETV
attr interpolationmode  none
attr source  sentDummyPk
attr title  "dummy packets sent, vector(packetBytes)"
vector 191  Net802154MultiGateway.host[13].wrappedHost.trafficgen  sentDummyPk:vector(packetBytes)  ETV
attr interpolationmode  none
attr source  sentDummyPk
attr title  "dummy packets sent, vector(packetBytes)"
vector 205  Net802154MultiGateway.host[14].wrappedHost.trafficgen  sentDummyPk:vector(packetBytes)  ETV
attr interpolationmode  none
attr source  sentDummyPk
attr title  "dummy packets sent, vector(packetBytes)"
vector 219  Net802154MultiGateway.host[15].wrappedHost.trafficgen  sentDummyPk:vector(packetBytes)  ETV
attr interpolationmode  none
attr source  sentDummyPk
attr title  "dummy packets sent, vector(packetBytes)"
vector 233  Net802154MultiGateway.host[16].wrappedHost.trafficgen  sentDummyPk:vector(packetBytes)  ETV
attr interpolationmode  none
attr source  sentDummyPk
attr title  "dummy packets sent, vector(packetBytes)"
vector 247  Net802154MultiGateway.host[17].wrappedHost.trafficgen  sentDummyPk:vector(packetBytes)  ETV
attr interpolationmode  none
attr source  sentDummyPk
attr title  "dummy packets sent, vector(packetBytes)"
vector 261  Net802154MultiGateway.host[18].wrappedHost.trafficgen  sentDummyPk:vector(packetBytes)  ETV
attr interpolationmode  none
attr source  sentDummyPk
attr title  "dummy packets sent, vector(packetBytes)"
vector 275  Net802154MultiGateway.host[19].wrappedHost.trafficgen  sentDummyPk:vector(packetBytes)  ETV
attr interpolationmode  none
attr source  sentDummyPk
attr title  "dummy packets sent, vector(packetBytes)"
vector 289  Net802154MultiGateway.host[20].wrappedHost.trafficgen  sentDummyPk:vector(packetBytes)  ETV
attr interpolationmode  none
attr source  sentDummyPk
attr title  "dummy packets sent, vector(packetBytes)"
vector 303  Net802154MultiGateway.host[21].wrappedHost.trafficgen  sentDummyPk:vector(packetBytes)  ETV
attr interpolationmode  none
attr source  sentDummyPk
attr title  "dummy packets sent, vector(packetBytes)"
vector 317  Net802154MultiGateway.host[22].wrappedHost.trafficgen  sentDummyPk:vector(packetBytes)  ETV
attr interpolationmode  none
attr source  sentDummyPk
attr title  "dummy packets sent, vector(packetBytes)"
vector 331  Net802154MultiGateway.host[23].wrappedHost.trafficgen  sentDummyPk:vector(packetBytes)  ETV
attr interpolationmode  none
attr source  sentDummyPk
attr title  "dummy packets sent, vector(packetBytes)"
vector 345  Net802154MultiGateway.host[24].wrappedHost.trafficgen  sentDummyPk:vector(packetBytes)  ETV
attr interpolationmode  none
attr source  sentDummyPk
attr title  "dummy packets sent, vector(packetBytes)"
vector 359  Net802154MultiGateway.host[25].wrappedHost.trafficgen  sentDummyPk:vector(packetBytes)  ETV
attr interpolationmode  none
attr source  sentDummyPk
attr title  "dummy packets sent, vector(packetBytes)"
vector 373  Net802154MultiGateway.host[26].wrappedHost.trafficgen  sentDummyPk:vector(packetBytes)  ETV
attr interpolationmode  none
attr source  sentDummyPk
attr title  "dummy packets sent, vector(packetBytes)"
vector 387  Net802154MultiGateway.host[27].wrappedHost.trafficgen  sentDummyPk:vector(packetBytes)  ETV
attr interpolationmode  none
attr source  sentDummyPk
attr title  "dummy packets sent, vector(packetBytes)"
vector 401  Net802154MultiGateway.host[28].wrappedHost.trafficgen  sentDummyPk:vector(packetBytes)  ETV
attr interpolationmode  none
attr source  sentDummyPk
attr title  "dummy packets sent, vector(packetBytes)"
vector 415  Net802154MultiGateway.host[29].wrappedHost.trafficgen  sentDummyPk:vector(packetBytes)  ETV
attr interpolationmode  none
attr source  sentDummyPk
attr title  "dummy packets sent, vector(packetBytes)"
vector 429  Net802154MultiGateway.host[30].wrappedHost.trafficgen  sentDummyPk:vector(packetBytes)  ETV
attr interpolationmode  none
attr source  sentDummyPk
attr title  "dummy packets sent, vector(packetBytes)"
vector 443  Net802154MultiGateway.host[31].wrappedHost.trafficgen  sentDummyPk:vector(packetBytes)  ETV
attr interpolationmode  none
attr source  sentDummyPk
attr title  "dummy packets sent, vector(packetBytes)"
vector 457  Net802154MultiGateway.host[32].wrappedHost.trafficgen  sentDummyPk:vector(packetBytes)  ETV
attr interpolationmode  none
attr source  sentDummyPk
attr title  "dummy packets sent, vector(packetBytes)"
vector 471  Net802154MultiGateway.host[33].wrappedHost.trafficgen  sentDummyPk:vector(packetBytes)  ETV
attr interpolationmode  none
attr source  sentDummyPk
attr title  "dummy packets sent, vector(packetBytes)"
vector 485  Net802154MultiGateway.host[34].wrappedHost.trafficgen  sentDummyPk:vector(packetBytes)  ETV
attr interpolationmode  none
attr source  sentDummyPk
attr title  "dummy packets sent, vector(packetBytes)"
vector 499  Net802154MultiGateway.host[35].wrappedHost.trafficgen  sentDummyPk:vector(packetBytes)  ETV
attr interpolationmode  none
attr source  sentDummyPk
attr title  "dummy packets sent, vector(packetBytes)"
vector 513  Net802154MultiGateway.host[36].wrappedHost.trafficgen  sentDummyPk:vector(packetBytes)  ETV
attr interpolationmode  none
attr source  sentDummyPk
attr title  "dummy packets sent, vector(packetBytes)"
vector 527  Net802154MultiGateway.host[37].wrappedHost.trafficgen  sentDummyPk:vector(packetBytes)  ETV
attr interpolationmode  none
attr source  sentDummyPk
attr title  "dummy packets sent, vector(packetBytes)"
vector 541  Net802154MultiGateway.host[38].wrappedHost.trafficgen  sentDummyPk:vector(packetBytes)  ETV
attr interpolationmode  none
attr source  sentDummyPk
attr title  "dummy packets sent, vector(packetBytes)"
vector 555  Net802154MultiGateway.host[39].wrappedHost.trafficgen  sentDummyPk:vector(packetBytes)  ETV
attr interpolationmode  none
attr source  sentDummyPk
attr title  "dummy packets sent, vector(packetBytes)"
vector 569  Net802154MultiGateway.host[40].wrappedHost.trafficgen  sentDummyPk:vector(packetBytes)  ETV
attr interpolationmode  none
attr source  sentDummyPk
attr title  "dummy packets sent, vector(packetBytes)"
vector 583  Net802154MultiGateway.host[41].wrappedHost.trafficgen  sentDummyPk:vector(packetBytes)  ETV
attr interpolationmode  none
attr source  sentDummyPk
attr title  "dummy packets sent, vector(packetBytes)"
vector 597  Net802154MultiGateway.host[42].wrappedHost.trafficgen  sentDummyPk:vector(packetBytes)  ETV
attr interpolationmode  none
attr source  sentDummyPk
attr title  "dummy packets sent, vector(packetBytes)"
vector 611  Net802154MultiGateway.host[43].wrappedHost.trafficgen  sentDummyPk:vector(packetBytes)  ETV
attr interpolationmode  none
attr source  sentDummyPk
attr title  "dummy packets sent, vector(packetBytes)"
vector 625  Net802154MultiGateway.host[44].wrappedHost.trafficgen  sentDummyPk:vector(packetBytes)  ETV
attr interpolationmode  none
attr source  sentDummyPk
attr title  "dummy packets sent, vector(packetBytes)"
vector 639  Net802154MultiGateway.host[45].wrappedHost.trafficgen  sentDummyPk:vector(packetBytes)  ETV
attr interpolationmode  none
attr source  sentDummyPk
attr title  "dummy packets sent, vector(packetBytes)"
vector 653  Net802154MultiGateway.host[46].wrappedHost.trafficgen  sentDummyPk:vector(packetBytes)  ETV
attr interpolationmode  none
attr source  sentDummyPk
attr title  "dummy packets sent, vector(packetBytes)"
vector 667  Net802154MultiGateway.host[47].wrappedHost.trafficgen  sentDummyPk:vector(packetBytes)  ETV
attr interpolationmode  none
attr source  sentDummyPk
attr title  "dummy packets sent, vector(packetBytes)"
vector 681  Net802154MultiGateway.host[48].wrappedHost.trafficgen  sentDummyPk:vector(packetBytes)  ETV
attr interpolationmode  none
attr source  sentDummyPk
attr title  "dummy packets sent, vector(packetBytes)"
vector 695  Net802154MultiGateway.host[49].wrappedHost.trafficgen  sentDummyPk:vector(packetBytes)  ETV
attr interpolationmode  none
attr source  sentDummyPk
attr title  "dummy packets sent, vector(packetBytes)"
vector 709  Net802154MultiGateway.host[50].wrappedHost.trafficgen  sentDummyPk:vector(packetBytes)  ETV
attr interpolationmode  none
attr source  sentDummyPk
attr title  "dummy packets sent, vector(packetBytes)"
vector 723  Net802154MultiGateway.host[51].wrappedHost.trafficgen  sentDummyPk:vector(packetBytes)  ETV
attr interpolationmode  none
attr source  sentDummyPk
attr title  "dummy packets sent, vector(packetBytes)"
vector 737  Net802154MultiGateway.host[52].wrappedHost.trafficgen  sentDummyPk:vector(packetBytes)  ETV
attr interpolationmode  none
attr source  sentDummyPk
attr title  "dummy packets sent, vector(packetBytes)"
vector 751  Net802154MultiGateway.host[53].wrappedHost.trafficgen  sentDummyPk:vector(packetBytes)  ETV
attr interpolationmode  none
attr source  sentDummyPk
attr title  "dummy packets sent, vector(packetBytes)"
vector 765  Net802154MultiGateway.host[54].wrappedHost.trafficgen  sentDummyPk:vector(packetBytes)  ETV
attr interpolationmode  none
attr source  sentDummyPk
attr title  "dummy packets sent, vector(packetBytes)"
vector 779  Net802154MultiGateway.host[55].wrappedHost.trafficgen  sentDummyPk:vector(packetBytes)  ETV
attr interpolationmode  none
attr source  sentDummyPk
attr title  "dummy packets sent, vector(packetBytes)"
vector 793  Net802154MultiGateway.host[56].wrappedHost.trafficgen  sentDummyPk:vector(packetBytes)  ETV
attr interpolationmode  none
attr source  sentDummyPk
attr title  "dummy packets sent, vector(packetBytes)"
vector 807  Net802154MultiGateway.host[57].wrappedHost.trafficgen  sentDummyPk:vector(packetBytes)  ETV
attr interpolationmode  none
attr source  sentDummyPk
attr title  "dummy packets sent, vector(packetBytes)"
vector 821  Net802154MultiGateway.host[58].wrappedHost.trafficgen  sentDummyPk:vector(packetBytes)  ETV
attr interpolationmode  none
attr source  sentDummyPk
attr title  "dummy packets sent, vector(packetBytes)"
vector 835  Net802154MultiGateway.host[59].wrappedHost.trafficgen  sentDummyPk:vector(packetBytes)  ETV
attr interpolationmode  none
attr source  sentDummyPk
attr title  "dummy packets sent, vector(packetBytes)"
vector 849  Net802154MultiGateway.host[60].wrappedHost.trafficgen  sentDummyPk:vector(packetBytes)  ETV
attr interpolationmode  none
attr source  sentDummyPk
attr title  "dummy packets sent, vector(packetBytes)"
vector 863  Net802154MultiGateway.host[61].wrappedHost.trafficgen  sentDummyPk:vector(packetBytes)  ETV
attr interpolationmode  none
attr source  sentDummyPk
attr title  "dummy packets sent, vector(packetBytes)"
vector 286  Net802154MultiGateway.host[20].wrappedHost.trafficgen  sentPk:vector(packetBytes)  ETV
attr interpolationmode  none
attr source  sentPk
attr title  "packets sent, vector(packetBytes)"
vector 290  Net802154MultiGateway.host[20].wrappedHost.trafficgen  PRR:vector  ETV
attr interpolationmode  none
attr source  count(sinkRcvdPk)/count(sentPk)
attr title  "PRR, vector"
vector 288  Net802154MultiGateway.host[20].wrappedHost.trafficgen  sinkRcvdPk:vector(packetBytes)  ETV
attr interpolationmode  none
attr source  sinkRcvdPk
attr title  "own packets received by sink, vector(packetBytes)"
vector 5  Net802154MultiGateway.host[0].wrappedHost.trafficgen  rcvdPk:vector(packetBytes)  ETV
attr interpolationmode  none
attr source  rcvdPk
attr title  "packets received, vector(packetBytes)"
vector 7  Net802154MultiGateway.host[0].wrappedHost.trafficgen  endToEndDelay:vector  ETV
attr interpolationmode  none
attr source  messageAge(rcvdPk)
attr title  "end-to-end delay, vector"
attr unit  s
vector 48  Net802154MultiGateway.host[3].wrappedHost.trafficgen  sentPk:vector(packetBytes)  ETV
attr interpolationmode  none
attr source  sentPk
attr title  "packets sent, vector(packetBytes)"
vector 52  Net802154MultiGateway.host[3].wrappedHost.trafficgen  PRR:vector  ETV
attr interpolationmode  none
attr source  count(sinkRcvdPk)/count(sentPk)
attr title  "PRR, vector"
vector 50  Net802154MultiGateway.host[3].wrappedHost.trafficgen  sinkRcvdPk:vector(packetBytes)  ETV
attr interpolationmode  none
attr source  sinkRcvdPk
attr title  "own packets received by sink, vector(packetBytes)"
vector 762  Net802154MultiGateway.host[54].wrappedHost.trafficgen  sentPk:vector(packetBytes)  ETV
attr interpolationmode  none
attr source  sentPk
attr title  "packets sent, vector(packetBytes)"
vector 766  Net802154MultiGateway.host[54].wrappedHost.trafficgen  PRR:vector  ETV
attr interpolationmode  none
attr source  count(sinkRcvdPk)/count(sentPk)
attr title  "PRR, vector"
vector 62  Net802154MultiGateway.host[4].wrappedHost.trafficgen  sentPk:vector(packetBytes)  ETV
attr interpolationmode  none
attr source  sentPk
attr title  "packets sent, vector(packetBytes)"
vector 66  Net802154MultiGateway.host[4].wrappedHost.trafficgen  PRR:vector  ETV
attr interpolationmode  none
attr source  count(sinkRcvdPk)/count(sentPk)
attr title  "PRR, vector"
vector 538  Net802154MultiGateway.host[38].wrappedHost.trafficgen  sentPk:vector(packetBytes)  ETV
attr interpolationmode  none
attr source  sentPk
attr title  "packets sent, vector(packetBytes)"
vector 542  Net802154MultiGateway.host[38].wrappedHost.trafficgen  PRR:vector  ETV
attr interpolationmode  none
attr source  count(sinkRcvdPk)/count(sentPk)
attr title  "PRR, vector"
vector 64  Net802154MultiGateway.host[4].wrappedHost.trafficgen  sinkRcvdPk:vector(packetBytes)  ETV
attr interpolationmode  none
attr source  sinkRcvdPk
attr title  "own packets received by sink, vector(packetBytes)"
vector 764  Net802154MultiGateway.host[54].wrappedHost.trafficgen  sinkRcvdPk:vector(packetBytes)  ETV
attr interpolationmode  none
attr source  sinkRcvdPk
attr title  "own packets received by sink, vector(packetBytes)"
vector 540  Net802154MultiGateway.host[38].wrappedHost.trafficgen  sinkRcvdPk:vector(packetBytes)  ETV
attr interpolationmode  none
attr source  sinkRcvdPk
attr title  "own packets received by sink, vector(packetBytes)"
vector 146  Net802154MultiGateway.host[10].wrappedHost.trafficgen  sentPk:vector(packetBytes)  ETV
attr interpolationmode  none
attr source  sentPk
attr title  "packets sent, vector(packetBytes)"
vector 150  Net802154MultiGateway.host[10].wrappedHost.trafficgen  PRR:vector  ETV
attr interpolationmode  none
attr source  count(sinkRcvdPk)/count(sentPk)
attr title  "PRR, vector"
vector 148  Net802154MultiGateway.host[10].wrappedHost.trafficgen  sinkRcvdPk:vector(packetBytes)  ETV
attr interpolationmode  none
attr source  sinkRcvdPk
attr title  "own packets received by sink, vector(packetBytes)"
vector 188  Net802154MultiGateway.host[13].wrappedHost.trafficgen  sentPk:vector(packetBytes)  ETV
attr interpolationmode  none
attr source  sentPk
attr title  "packets sent, vector(packetBytes)"
vector 192  Net802154MultiGateway.host[13].wrappedHost.trafficgen  PRR:vector  ETV
attr interpolationmode  none
attr source  count(sinkRcvdPk)/count(sentPk)
attr title  "PRR, vector"
vector 190  Net802154MultiGateway.host[13].wrappedHost.trafficgen  sinkRcvdPk:vector(packetBytes)  ETV
attr interpolationmode  none
attr source  sinkRcvdPk
attr title  "own packets received by sink, vector(packetBytes)"
vector 398  Net802154MultiGateway.host[28].wrappedHost.trafficgen  sentPk:vector(packetBytes)  ETV
attr interpolationmode  none
attr source  sentPk
attr title  "packets sent, vector(packetBytes)"
vector 402  Net802154MultiGateway.host[28].wrappedHost.trafficgen  PRR:vector  ETV
attr interpolationmode  none
attr source  count(sinkRcvdPk)/count(sentPk)
attr title  "PRR, vector"
vector 400  Net802154MultiGateway.host[28].wrappedHost.trafficgen  sinkRcvdPk:vector(packetBytes)  ETV
attr interpolationmode  none
attr source  sinkRcvdPk
attr title  "own packets received by sink, vector(packetBytes)"
vector 608  Net802154MultiGateway.host[43].wrappedHost.trafficgen  sentPk:vector(packetBytes)  ETV
attr interpolationmode  none
attr source  sentPk
attr title  "packets sent, vector(packetBytes)"
vector 612  Net802154MultiGateway.host[43].wrappedHost.trafficgen  PRR:vector  ETV
attr interpolationmode  none
attr source  count(sinkRcvdPk)/count(sentPk)
attr title  "PRR, vector"
vector 610  Net802154MultiGateway.host[43].wrappedHost.trafficgen  sinkRcvdPk:vector(packetBytes)  ETV
attr interpolationmode  none
attr source  sinkRcvdPk
attr title  "own packets received by sink, vector(packetBytes)"
vector 622  Net802154MultiGateway.host[44].wrappedHost.trafficgen  sentPk:vector(packetBytes)  ETV
attr interpolationmode  none
attr source  sentPk
attr title  "packets sent, vector(packetBytes)"
vector 626  Net802154MultiGateway.host[44].wrappedHost.trafficgen  PRR:vector  ETV
attr interpolationmode  none
attr source  count(sinkRcvdPk)/count(sentPk)
attr title  "PRR, vector"
vector 258  Net802154MultiGateway.host[18].wrappedHost.trafficgen  sentPk:vector(packetBytes)  ETV
attr interpolationmode  none
attr source  sentPk
attr title  "packets sent, vector(packetBytes)"
vector 262  Net802154MultiGateway.host[18].wrappedHost.trafficgen  PRR:vector  ETV
attr interpolationmode  none
attr source  count(sinkRcvdPk)/count(sentPk)
attr title  "PRR, vector"
vector 624  Net802154MultiGateway.host[44].wrappedHost.trafficgen  sinkRcvdPk:vector(packetBytes)  ETV
attr interpolationmode  none
attr source  sinkRcvdPk
attr title  "own packets received by sink, vector(packetBytes)"
vector 260  Net802154MultiGateway.host[18].wrappedHost.trafficgen  sinkRcvdPk:vector(packetBytes)  ETV
attr interpolationmode  none
attr source  sinkRcvdPk
attr title  "own packets received by sink, vector(packetBytes)"
vector 706  Net802154MultiGateway.host[50].wrappedHost.trafficgen  sentPk:vector(packetBytes)  ETV
attr interpolationmode  none
attr source  sentPk
attr title  "packets sent, vector(packetBytes)"
vector 710  Net802154MultiGateway.host[50].wrappedHost.trafficgen  PRR:vector  ETV
attr interpolationmode  none
attr source  count(sinkRcvdPk)/count(sentPk)
attr title  "PRR, vector"
vector 708  Net802154MultiGateway.host[50].wrappedHost.trafficgen  sinkRcvdPk:vector(packetBytes)  ETV
attr interpolationmode  none
attr source  sinkRcvdPk
attr title  "own packets received by sink, vector(packetBytes)"
vector 426  Net802154MultiGateway.host[30].wrappedHost.trafficgen  sentPk:vector(packetBytes)  ETV
attr interpolationmode  none
attr source  sentPk
attr title  "packets sent, vector(packetBytes)"
vector 430  Net802154MultiGateway.host[30].wrappedHost.trafficgen  PRR:vector  ETV
attr interpolationmode  none
attr source  count(sinkRcvdPk)/count(sentPk)
attr title  "PRR, vector"
vector 428  Net802154MultiGateway.host[30].wrappedHost.trafficgen  sinkRcvdPk:vector(packetBytes)  ETV
attr interpolationmode  none
attr source  sinkRcvdPk
attr title  "own packets received by sink, vector(packetBytes)"
vector 454  Net802154MultiGateway.host[32].wrappedHost.trafficgen  sentPk:vector(packetBytes)  ETV
attr interpolationmode  none
attr source  sentPk
attr title  "packets sent, vector(packetBytes)"
vector 458  Net802154MultiGateway.host[32].wrappedHost.trafficgen  PRR:vector  ETV
attr interpolationmode  none
attr source  count(sinkRcvdPk)/count(sentPk)
attr title  "PRR, vector"
vector 456  Net802154MultiGateway.host[32].wrappedHost.trafficgen  sinkRcvdPk:vector(packetBytes)  ETV
attr interpolationmode  none
attr source  sinkRcvdPk
attr title  "own packets received by sink, vector(packetBytes)"
vector 748  Net802154MultiGateway.host[53].wrappedHost.trafficgen  sentPk:vector(packetBytes)  ETV
attr interpolationmode  none
attr source  sentPk
attr title  "packets sent, vector(packetBytes)"
vector 752  Net802154MultiGateway.host[53].wrappedHost.trafficgen  PRR:vector  ETV
attr interpolationmode  none
attr source  count(sinkRcvdPk)/count(sentPk)
attr title  "PRR, vector"
vector 202  Net802154MultiGateway.host[14].wrappedHost.trafficgen  sentPk:vector(packetBytes)  ETV
attr interpolationmode  none
attr source  sentPk
attr title  "packets sent, vector(packetBytes)"
vector 206  Net802154MultiGateway.host[14].wrappedHost.trafficgen  PRR:vector  ETV
attr interpolationmode  none
attr source  count(sinkRcvdPk)/count(sentPk)
attr title  "PRR, vector"
vector 204  Net802154MultiGateway.host[14].wrappedHost.trafficgen  sinkRcvdPk:vector(packetBytes)  ETV
attr interpolationmode  none
attr source  sinkRcvdPk
attr title  "own packets received by sink, vector(packetBytes)"
vector 230  Net802154MultiGateway.host[16].wrappedHost.trafficgen  sentPk:vector(packetBytes)  ETV
attr interpolationmode  none
attr source  sentPk
attr title  "packets sent, vector(packetBytes)"
vector 234  Net802154MultiGateway.host[16].wrappedHost.trafficgen  PRR:vector  ETV
attr interpolationmode  none
attr source  count(sinkRcvdPk)/count(sentPk)
attr title  "PRR, vector"
vector 750  Net802154MultiGateway.host[53].wrappedHost.trafficgen  sinkRcvdPk:vector(packetBytes)  ETV
attr interpolationmode  none
attr source  sinkRcvdPk
attr title  "own packets received by sink, vector(packetBytes)"
vector 232  Net802154MultiGateway.host[16].wrappedHost.trafficgen  sinkRcvdPk:vector(packetBytes)  ETV
attr interpolationmode  none
attr source  sinkRcvdPk
attr title  "own packets received by sink, vector(packetBytes)"
vector 860  Net802154MultiGateway.host[61].wrappedHost.trafficgen  sentPk:vector(packetBytes)  ETV
attr interpolationmode  none
attr source  sentPk
attr title  "packets sent, vector(packetBytes)"
vector 864  Net802154MultiGateway.host[61].wrappedHost.trafficgen  PRR:vector  ETV
attr interpolationmode  none
attr source  count(sinkRcvdPk)/count(sentPk)
attr title  "PRR, vector"
vector 862  Net802154MultiGateway.host[61].wrappedHost.trafficgen  sinkRcvdPk:vector(packetBytes)  ETV
attr interpolationmode  none
attr source  sinkRcvdPk
attr title  "own packets received by sink, vector(packetBytes)"
vector 342  Net802154MultiGateway.host[24].wrappedHost.trafficgen  sentPk:vector(packetBytes)  ETV
attr interpolationmode  none
attr source  sentPk
attr title  "packets sent, vector(packetBytes)"
vector 346  Net802154MultiGateway.host[24].wrappedHost.trafficgen  PRR:vector  ETV
attr interpolationmode  none
attr source  count(sinkRcvdPk)/count(sentPk)
attr title  "PRR, vector"
vector 344  Net802154MultiGateway.host[24].wrappedHost.trafficgen  sinkRcvdPk:vector(packetBytes)  ETV
attr interpolationmode  none
attr source  sinkRcvdPk
attr title  "own packets received by sink, vector(packetBytes)"
vector 720  Net802154MultiGateway.host[51].wrappedHost.trafficgen  sentPk:vector(packetBytes)  ETV
attr interpolationmode  none
attr source  sentPk
attr title  "packets sent, vector(packetBytes)"
vector 724  Net802154MultiGateway.host[51].wrappedHost.trafficgen  PRR:vector  ETV
attr interpolationmode  none
attr source  count(sinkRcvdPk)/count(sentPk)
attr title  "PRR, vector"
vector 734  Net802154MultiGateway.host[52].wrappedHost.trafficgen  sentPk:vector(packetBytes)  ETV
attr interpolationmode  none
attr source  sentPk
attr title  "packets sent, vector(packetBytes)"
vector 738  Net802154MultiGateway.host[52].wrappedHost.trafficgen  PRR:vector  ETV
attr interpolationmode  none
attr source  count(sinkRcvdPk)/count(sentPk)
attr title  "PRR, vector"
vector 524  Net802154MultiGateway.host[37].wrappedHost.trafficgen  sentPk:vector(packetBytes)  ETV
attr interpolationmode  none
attr source  sentPk
attr title  "packets sent, vector(packetBytes)"
vector 528  Net802154MultiGateway.host[37].wrappedHost.trafficgen  PRR:vector  ETV
attr interpolationmode  none
attr source  count(sinkRcvdPk)/count(sentPk)
attr title  "PRR, vector"
vector 736  Net802154MultiGateway.host[52].wrappedHost.trafficgen  sinkRcvdPk:vector(packetBytes)  ETV
attr interpolationmode  none
attr source  sinkRcvdPk
attr title  "own packets received by sink, vector(packetBytes)"
vector 526  Net802154MultiGateway.host[37].wrappedHost.trafficgen  sinkRcvdPk:vector(packetBytes)  ETV
attr interpolationmode  none
attr source  sinkRcvdPk
attr title  "own packets received by sink, vector(packetBytes)"
vector 722  Net802154MultiGateway.host[51].wrappedHost.trafficgen  sinkRcvdPk:vector(packetBytes)  ETV
attr interpolationmode  none
attr source  sinkRcvdPk
attr title  "own packets received by sink, vector(packetBytes)"
vector 132  Net802154MultiGateway.host[9].wrappedHost.trafficgen  sentPk:vector(packetBytes)  ETV
attr interpolationmode  none
attr source  sentPk
attr title  "packets sent, vector(packetBytes)"
vector 136  Net802154MultiGateway.host[9].wrappedHost.trafficgen  PRR:vector  ETV
attr interpolationmode  none
attr source  count(sinkRcvdPk)/count(sentPk)
attr title  "PRR, vector"
vector 134  Net802154MultiGateway.host[9].wrappedHost.trafficgen  sinkRcvdPk:vector(packetBytes)  ETV
attr interpolationmode  none
attr source  sinkRcvdPk
attr title  "own packets received by sink, vector(packetBytes)"
vector 272  Net802154MultiGateway.host[19].wrappedHost.trafficgen  sentPk:vector(packetBytes)  ETV
attr interpolationmode  none
attr source  sentPk
attr title  "packets sent, vector(packetBytes)"
vector 276  Net802154MultiGateway.host[19].wrappedHost.trafficgen  PRR:vector  ETV
attr interpolationmode  none
attr source  count(sinkRcvdPk)/count(sentPk)
attr title  "PRR, vector"
vector 580  Net802154MultiGateway.host[41].wrappedHost.trafficgen  sentPk:vector(packetBytes)  ETV
attr interpolationmode  none
attr source  sentPk
attr title  "packets sent, vector(packetBytes)"
vector 584  Net802154MultiGateway.host[41].wrappedHost.trafficgen  PRR:vector  ETV
attr interpolationmode  none
attr source  count(sinkRcvdPk)/count(sentPk)
attr title  "PRR, vector"
vector 482  Net802154MultiGateway.host[34].wrappedHost.trafficgen  sentPk:vector(packetBytes)  ETV
attr interpolationmode  none
attr source  sentPk
attr title  "packets sent, vector(packetBytes)"
vector 486  Net802154MultiGateway.host[34].wrappedHost.trafficgen  PRR:vector  ETV
attr interpolationmode  none
attr source  count(sinkRcvdPk)/count(sentPk)
attr title  "PRR, vector"
vector 274  Net802154MultiGateway.host[19].wrappedHost.trafficgen  sinkRcvdPk:vector(packetBytes)  ETV
attr interpolationmode  none
attr source  sinkRcvdPk
attr title  "own packets received by sink, vector(packetBytes)"
vector 582  Net802154MultiGateway.host[41].wrappedHost.trafficgen  sinkRcvdPk:vector(packetBytes)  ETV
attr interpolationmode  none
attr source  sinkRcvdPk
attr title  "own packets received by sink, vector(packetBytes)"
vector 484  Net802154MultiGateway.host[34].wrappedHost.trafficgen  sinkRcvdPk:vector(packetBytes)  ETV
attr interpolationmode  none
attr source  sinkRcvdPk
attr title  "own packets received by sink, vector(packetBytes)"
vector 496  Net802154MultiGateway.host[35].wrappedHost.trafficgen  sentPk:vector(packetBytes)  ETV
attr interpolationmode  none
attr source  sentPk
attr title  "packets sent, vector(packetBytes)"
vector 500  Net802154MultiGateway.host[35].wrappedHost.trafficgen  PRR:vector  ETV
attr interpolationmode  none
attr source  count(sinkRcvdPk)/count(sentPk)
attr title  "PRR, vector"
vector 498  Net802154MultiGateway.host[35].wrappedHost.trafficgen  sinkRcvdPk:vector(packetBytes)  ETV
attr interpolationmode  none
attr source  sinkRcvdPk
attr title  "own packets received by sink, vector(packetBytes)"
vector 34  Net802154MultiGateway.host[2].wrappedHost.trafficgen  sentPk:vector(packetBytes)  ETV
attr interpolationmode  none
attr source  sentPk
attr title  "packets sent, vector(packetBytes)"
vector 38  Net802154MultiGateway.host[2].wrappedHost.trafficgen  PRR:vector  ETV
attr interpolationmode  none
attr source  count(sinkRcvdPk)/count(sentPk)
attr title  "PRR, vector"
vector 36  Net802154MultiGateway.host[2].wrappedHost.trafficgen  sinkRcvdPk:vector(packetBytes)  ETV
attr interpolationmode  none
attr source  sinkRcvdPk
attr title  "own packets received by sink, vector(packetBytes)"
vector 440  Net802154MultiGateway.host[31].wrappedHost.trafficgen  sentPk:vector(packetBytes)  ETV
attr interpolationmode  none
attr source  sentPk
attr title  "packets sent, vector(packetBytes)"
vector 444  Net802154MultiGateway.host[31].wrappedHost.trafficgen  PRR:vector  ETV
attr interpolationmode  none
attr source  count(sinkRcvdPk)/count(sentPk)
attr title  "PRR, vector"
vector 442  Net802154MultiGateway.host[31].wrappedHost.trafficgen  sinkRcvdPk:vector(packetBytes)  ETV
attr interpolationmode  none
attr source  sinkRcvdPk
attr title  "own packets received by sink, vector(packetBytes)"
vector 244  Net802154MultiGateway.host[17].wrappedHost.trafficgen  sentPk:vector(packetBytes)  ETV
attr interpolationmode  none
attr source  sentPk
attr title  "packets sent, vector(packetBytes)"
vector 248  Net802154MultiGateway.host[17].wrappedHost.trafficgen  PRR:vector  ETV
attr interpolationmode  none
attr source  count(sinkRcvdPk)/count(sentPk)
attr title  "PRR, vector"
vector 246  Net802154MultiGateway.host[17].wrappedHost.trafficgen  sinkRcvdPk:vector(packetBytes)  ETV
attr interpolationmode  none
attr source  sinkRcvdPk
attr title  "own packets received by sink, vector(packetBytes)"
vector 650  Net802154MultiGateway.host[46].wrappedHost.trafficgen  sentPk:vector(packetBytes)  ETV
attr interpolationmode  none
attr source  sentPk
attr title  "packets sent, vector(packetBytes)"
vector 654  Net802154MultiGateway.host[46].wrappedHost.trafficgen  PRR:vector  ETV
attr interpolationmode  none
attr source  count(sinkRcvdPk)/count(sentPk)
attr title  "PRR, vector"
vector 652  Net802154MultiGateway.host[46].wrappedHost.trafficgen  sinkRcvdPk:vector(packetBytes)  ETV
attr interpolationmode  none
attr source  sinkRcvdPk
attr title  "own packets received by sink, vector(packetBytes)"
vector 356  Net802154MultiGateway.host[25].wrappedHost.trafficgen  sentPk:vector(packetBytes)  ETV
attr interpolationmode  none
attr source  sentPk
attr title  "packets sent, vector(packetBytes)"
vector 360  Net802154MultiGateway.host[25].wrappedHost.trafficgen  PRR:vector  ETV
attr interpolationmode  none
attr source  count(sinkRcvdPk)/count(sentPk)
attr title  "PRR, vector"
vector 664  Net802154MultiGateway.host[47].wrappedHost.trafficgen  sentPk:vector(packetBytes)  ETV
attr interpolationmode  none
attr source  sentPk
attr title  "packets sent, vector(packetBytes)"
vector 668  Net802154MultiGateway.host[47].wrappedHost.trafficgen  PRR:vector  ETV
attr interpolationmode  none
attr source  count(sinkRcvdPk)/count(sentPk)
attr title  "PRR, vector"
vector 692  Net802154MultiGateway.host[49].wrappedHost.trafficgen  sentPk:vector(packetBytes)  ETV
attr interpolationmode  none
attr source  sentPk
attr title  "packets sent, vector(packetBytes)"
vector 696  Net802154MultiGateway.host[49].wrappedHost.trafficgen  PRR:vector  ETV
attr interpolationmode  none
attr source  count(sinkRcvdPk)/count(sentPk)
attr title  "PRR, vector"
vector 666  Net802154MultiGateway.host[47].wrappedHost.trafficgen  sinkRcvdPk:vector(packetBytes)  ETV
attr interpolationmode  none
attr source  sinkRcvdPk
attr title  "own packets received by sink, vector(packetBytes)"
vector 358  Net802154MultiGateway.host[25].wrappedHost.trafficgen  sinkRcvdPk:vector(packetBytes)  ETV
attr interpolationmode  none
attr source  sinkRcvdPk
attr title  "own packets received by sink, vector(packetBytes)"
vector 694  Net802154MultiGateway.host[49].wrappedHost.trafficgen  sinkRcvdPk:vector(packetBytes)  ETV
attr interpolationmode  none
attr source  sinkRcvdPk
attr title  "own packets received by sink, vector(packetBytes)"
vector 818  Net802154MultiGateway.host[58].wrappedHost.trafficgen  sentPk:vector(packetBytes)  ETV
attr interpolationmode  none
attr source  sentPk
attr title  "packets sent, vector(packetBytes)"
vector 822  Net802154MultiGateway.host[58].wrappedHost.trafficgen  PRR:vector  ETV
attr interpolationmode  none
attr source  count(sinkRcvdPk)/count(sentPk)
attr title  "PRR, vector"
vector 820  Net802154MultiGateway.host[58].wrappedHost.trafficgen  sinkRcvdPk:vector(packetBytes)  ETV
attr interpolationmode  none
attr source  sinkRcvdPk
attr title  "own packets received by sink, vector(packetBytes)"
vector 832  Net802154MultiGateway.host[59].wrappedHost.trafficgen  sentPk:vector(packetBytes)  ETV
attr interpolationmode  none
attr source  sentPk
attr title  "packets sent, vector(packetBytes)"
vector 836  Net802154MultiGateway.host[59].wrappedHost.trafficgen  PRR:vector  ETV
attr interpolationmode  none
attr source  count(sinkRcvdPk)/count(sentPk)
attr title  "PRR, vector"
vector 300  Net802154MultiGateway.host[21].wrappedHost.trafficgen  sentPk:vector(packetBytes)  ETV
attr interpolationmode  none
attr source  sentPk
attr title  "packets sent, vector(packetBytes)"
vector 304  Net802154MultiGateway.host[21].wrappedHost.trafficgen  PRR:vector  ETV
attr interpolationmode  none
attr source  count(sinkRcvdPk)/count(sentPk)
attr title  "PRR, vector"
vector 834  Net802154MultiGateway.host[59].wrappedHost.trafficgen  sinkRcvdPk:vector(packetBytes)  ETV
attr interpolationmode  none
attr source  sinkRcvdPk
attr title  "own packets received by sink, vector(packetBytes)"
vector 302  Net802154MultiGateway.host[21].wrappedHost.trafficgen  sinkRcvdPk:vector(packetBytes)  ETV
attr interpolationmode  none
attr source  sinkRcvdPk
attr title  "own packets received by sink, vector(packetBytes)"
vector 160  Net802154MultiGateway.host[11].wrappedHost.trafficgen  sentPk:vector(packetBytes)  ETV
attr interpolationmode  none
attr source  sentPk
attr title  "packets sent, vector(packetBytes)"
vector 164  Net802154MultiGateway.host[11].wrappedHost.trafficgen  PRR:vector  ETV
attr interpolationmode  none
attr source  count(sinkRcvdPk)/count(sentPk)
attr title  "PRR, vector"
vector 162  Net802154MultiGateway.host[11].wrappedHost.trafficgen  sinkRcvdPk:vector(packetBytes)  ETV
attr interpolationmode  none
attr source  sinkRcvdPk
attr title  "own packets received by sink, vector(packetBytes)"
vector 636  Net802154MultiGateway.host[45].wrappedHost.trafficgen  sentPk:vector(packetBytes)  ETV
attr interpolationmode  none
attr source  sentPk
attr title  "packets sent, vector(packetBytes)"
vector 640  Net802154MultiGateway.host[45].wrappedHost.trafficgen  PRR:vector  ETV
attr interpolationmode  none
attr source  count(sinkRcvdPk)/count(sentPk)
attr title  "PRR, vector"
vector 638  Net802154MultiGateway.host[45].wrappedHost.trafficgen  sinkRcvdPk:vector(packetBytes)  ETV
attr interpolationmode  none
attr source  sinkRcvdPk
attr title  "own packets received by sink, vector(packetBytes)"
vector 328  Net802154MultiGateway.host[23].wrappedHost.trafficgen  sentPk:vector(packetBytes)  ETV
attr interpolationmode  none
attr source  sentPk
attr title  "packets sent, vector(packetBytes)"
vector 332  Net802154MultiGateway.host[23].wrappedHost.trafficgen  PRR:vector  ETV
attr interpolationmode  none
attr source  count(sinkRcvdPk)/count(sentPk)
attr title  "PRR, vector"
vector 330  Net802154MultiGateway.host[23].wrappedHost.trafficgen  sinkRcvdPk:vector(packetBytes)  ETV
attr interpolationmode  none
attr source  sinkRcvdPk
attr title  "own packets received by sink, vector(packetBytes)"
vector 76  Net802154MultiGateway.host[5].wrappedHost.trafficgen  sentPk:vector(packetBytes)  ETV
attr interpolationmode  none
attr source  sentPk
attr title  "packets sent, vector(packetBytes)"
vector 80  Net802154MultiGateway.host[5].wrappedHost.trafficgen  PRR:vector  ETV
attr interpolationmode  none
attr source  count(sinkRcvdPk)/count(sentPk)
attr title  "PRR, vector"
vector 78  Net802154MultiGateway.host[5].wrappedHost.trafficgen  sinkRcvdPk:vector(packetBytes)  ETV
attr interpolationmode  none
attr source  sinkRcvdPk
attr title  "own packets received by sink, vector(packetBytes)"
vector 384  Net802154MultiGateway.host[27].wrappedHost.trafficgen  sentPk:vector(packetBytes)  ETV
attr interpolationmode  none
attr source  sentPk
attr title  "packets sent, vector(packetBytes)"
vector 388  Net802154MultiGateway.host[27].wrappedHost.trafficgen  PRR:vector  ETV
attr interpolationmode  none
attr source  count(sinkRcvdPk)/count(sentPk)
attr title  "PRR, vector"
vector 386  Net802154MultiGateway.host[27].wrappedHost.trafficgen  sinkRcvdPk:vector(packetBytes)  ETV
attr interpolationmode  none
attr source  sinkRcvdPk
attr title  "own packets received by sink, vector(packetBytes)"
vector 104  Net802154MultiGateway.host[7].wrappedHost.trafficgen  sentPk:vector(packetBytes)  ETV
attr interpolationmode  none
attr source  sentPk
attr title  "packets sent, vector(packetBytes)"
vector 108  Net802154MultiGateway.host[7].wrappedHost.trafficgen  PRR:vector  ETV
attr interpolationmode  none
attr source  count(sinkRcvdPk)/count(sentPk)
attr title  "PRR, vector"
vector 106  Net802154MultiGateway.host[7].wrappedHost.trafficgen  sinkRcvdPk:vector(packetBytes)  ETV
attr interpolationmode  none
attr source  sinkRcvdPk
attr title  "own packets received by sink, vector(packetBytes)"
vector 594  Net802154MultiGateway.host[42].wrappedHost.trafficgen  sentPk:vector(packetBytes)  ETV
attr interpolationmode  none
attr source  sentPk
attr title  "packets sent, vector(packetBytes)"
vector 598  Net802154MultiGateway.host[42].wrappedHost.trafficgen  PRR:vector  ETV
attr interpolationmode  none
attr source  count(sinkRcvdPk)/count(sentPk)
attr title  "PRR, vector"
vector 596  Net802154MultiGateway.host[42].wrappedHost.trafficgen  sinkRcvdPk:vector(packetBytes)  ETV
attr interpolationmode  none
attr source  sinkRcvdPk
attr title  "own packets received by sink, vector(packetBytes)"
vector 216  Net802154MultiGateway.host[15].wrappedHost.trafficgen  sentPk:vector(packetBytes)  ETV
attr interpolationmode  none
attr source  sentPk
attr title  "packets sent, vector(packetBytes)"
vector 220  Net802154MultiGateway.host[15].wrappedHost.trafficgen  PRR:vector  ETV
attr interpolationmode  none
attr source  count(sinkRcvdPk)/count(sentPk)
attr title  "PRR, vector"
vector 218  Net802154MultiGateway.host[15].wrappedHost.trafficgen  sinkRcvdPk:vector(packetBytes)  ETV
attr interpolationmode  none
attr source  sinkRcvdPk
attr title  "own packets received by sink, vector(packetBytes)"
vector 314  Net802154MultiGateway.host[22].wrappedHost.trafficgen  sentPk:vector(packetBytes)  ETV
attr interpolationmode  none
attr source  sentPk
attr title  "packets sent, vector(packetBytes)"
vector 318  Net802154MultiGateway.host[22].wrappedHost.trafficgen  PRR:vector  ETV
attr interpolationmode  none
attr source  count(sinkRcvdPk)/count(sentPk)
attr title  "PRR, vector"
vector 316  Net802154MultiGateway.host[22].wrappedHost.trafficgen  sinkRcvdPk:vector(packetBytes)  ETV
attr interpolationmode  none
attr source  sinkRcvdPk
attr title  "own packets received by sink, vector(packetBytes)"
vector 804  Net802154MultiGateway.host[57].wrappedHost.trafficgen  sentPk:vector(packetBytes)  ETV
attr interpolationmode  none
attr source  sentPk
attr title  "packets sent, vector(packetBytes)"
vector 808  Net802154MultiGateway.host[57].wrappedHost.trafficgen  PRR:vector  ETV
attr interpolationmode  none
attr source  count(sinkRcvdPk)/count(sentPk)
attr title  "PRR, vector"
vector 806  Net802154MultiGateway.host[57].wrappedHost.trafficgen  sinkRcvdPk:vector(packetBytes)  ETV
attr interpolationmode  none
attr source  sinkRcvdPk
attr title  "own packets received by sink, vector(packetBytes)"
vector 790  Net802154MultiGateway.host[56].wrappedHost.trafficgen  sentPk:vector(packetBytes)  ETV
attr interpolationmode  none
attr source  sentPk
attr title  "packets sent, vector(packetBytes)"
vector 794  Net802154MultiGateway.host[56].wrappedHost.trafficgen  PRR:vector  ETV
attr interpolationmode  none
attr source  count(sinkRcvdPk)/count(sentPk)
attr title  "PRR, vector"
vector 792  Net802154MultiGateway.host[56].wrappedHost.trafficgen  sinkRcvdPk:vector(packetBytes)  ETV
attr interpolationmode  none
attr source  sinkRcvdPk
attr title  "own packets received by sink, vector(packetBytes)"
vector 412  Net802154MultiGateway.host[29].wrappedHost.trafficgen  sentPk:vector(packetBytes)  ETV
attr interpolationmode  none
attr source  sentPk
attr title  "packets sent, vector(packetBytes)"
vector 416  Net802154MultiGateway.host[29].wrappedHost.trafficgen  PRR:vector  ETV
attr interpolationmode  none
attr source  count(sinkRcvdPk)/count(sentPk)
attr title  "PRR, vector"
vector 370  Net802154MultiGateway.host[26].wrappedHost.trafficgen  sentPk:vector(packetBytes)  ETV
attr interpolationmode  none
attr source  sentPk
attr title  "packets sent, vector(packetBytes)"
vector 374  Net802154MultiGateway.host[26].wrappedHost.trafficgen  PRR:vector  ETV
attr interpolationmode  none
attr source  count(sinkRcvdPk)/count(sentPk)
attr title  "PRR, vector"
vector 414  Net802154MultiGateway.host[29].wrappedHost.trafficgen  sinkRcvdPk:vector(packetBytes)  ETV
attr interpolationmode  none
attr source  sinkRcvdPk
attr title  "own packets received by sink, vector(packetBytes)"
vector 372  Net802154MultiGateway.host[26].wrappedHost.trafficgen  sinkRcvdPk:vector(packetBytes)  ETV
attr interpolationmode  none
attr source  sinkRcvdPk
attr title  "own packets received by sink, vector(packetBytes)"
vector 776  Net802154MultiGateway.host[55].wrappedHost.trafficgen  sentPk:vector(packetBytes)  ETV
attr interpolationmode  none
attr source  sentPk
attr title  "packets sent, vector(packetBytes)"
vector 780  Net802154MultiGateway.host[55].wrappedHost.trafficgen  PRR:vector  ETV
attr interpolationmode  none
attr source  count(sinkRcvdPk)/count(sentPk)
attr title  "PRR, vector"
vector 778  Net802154MultiGateway.host[55].wrappedHost.trafficgen  sinkRcvdPk:vector(packetBytes)  ETV
attr interpolationmode  none
attr source  sinkRcvdPk
attr title  "own packets received by sink, vector(packetBytes)"
vector 118  Net802154MultiGateway.host[8].wrappedHost.trafficgen  sentPk:vector(packetBytes)  ETV
attr interpolationmode  none
attr source  sentPk
attr title  "packets sent, vector(packetBytes)"
vector 122  Net802154MultiGateway.host[8].wrappedHost.trafficgen  PRR:vector  ETV
attr interpolationmode  none
attr source  count(sinkRcvdPk)/count(sentPk)
attr title  "PRR, vector"
vector 120  Net802154MultiGateway.host[8].wrappedHost.trafficgen  sinkRcvdPk:vector(packetBytes)  ETV
attr interpolationmode  none
attr source  sinkRcvdPk
attr title  "own packets received by sink, vector(packetBytes)"
vector 510  Net802154MultiGateway.host[36].wrappedHost.trafficgen  sentPk:vector(packetBytes)  ETV
attr interpolationmode  none
attr source  sentPk
attr title  "packets sent, vector(packetBytes)"
vector 514  Net802154MultiGateway.host[36].wrappedHost.trafficgen  PRR:vector  ETV
attr interpolationmode  none
attr source  count(sinkRcvdPk)/count(sentPk)
attr title  "PRR, vector"
vector 512  Net802154MultiGateway.host[36].wrappedHost.trafficgen  sinkRcvdPk:vector(packetBytes)  ETV
attr interpolationmode  none
attr source  sinkRcvdPk
attr title  "own packets received by sink, vector(packetBytes)"
vector 846  Net802154MultiGateway.host[60].wrappedHost.trafficgen  sentPk:vector(packetBytes)  ETV
attr interpolationmode  none
attr source  sentPk
attr title  "packets sent, vector(packetBytes)"
vector 850  Net802154MultiGateway.host[60].wrappedHost.trafficgen  PRR:vector  ETV
attr interpolationmode  none
attr source  count(sinkRcvdPk)/count(sentPk)
attr title  "PRR, vector"
vector 848  Net802154MultiGateway.host[60].wrappedHost.trafficgen  sinkRcvdPk:vector(packetBytes)  ETV
attr interpolationmode  none
attr source  sinkRcvdPk
attr title  "own packets received by sink, vector(packetBytes)"
vector 552  Net802154MultiGateway.host[39].wrappedHost.trafficgen  sentPk:vector(packetBytes)  ETV
attr interpolationmode  none
attr source  sentPk
attr title  "packets sent, vector(packetBytes)"
vector 556  Net802154MultiGateway.host[39].wrappedHost.trafficgen  PRR:vector  ETV
attr interpolationmode  none
attr source  count(sinkRcvdPk)/count(sentPk)
attr title  "PRR, vector"
vector 554  Net802154MultiGateway.host[39].wrappedHost.trafficgen  sinkRcvdPk:vector(packetBytes)  ETV
attr interpolationmode  none
attr source  sinkRcvdPk
attr title  "own packets received by sink, vector(packetBytes)"
vector 678  Net802154MultiGateway.host[48].wrappedHost.trafficgen  sentPk:vector(packetBytes)  ETV
attr interpolationmode  none
attr source  sentPk
attr title  "packets sent, vector(packetBytes)"
vector 682  Net802154MultiGateway.host[48].wrappedHost.trafficgen  PRR:vector  ETV
attr interpolationmode  none
attr source  count(sinkRcvdPk)/count(sentPk)
attr title  "PRR, vector"
vector 680  Net802154MultiGateway.host[48].wrappedHost.trafficgen  sinkRcvdPk:vector(packetBytes)  ETV
attr interpolationmode  none
attr source  sinkRcvdPk
attr title  "own packets received by sink, vector(packetBytes)"
vector 20  Net802154MultiGateway.host[1].wrappedHost.trafficgen  sentPk:vector(packetBytes)  ETV
attr interpolationmode  none
attr source  sentPk
attr title  "packets sent, vector(packetBytes)"
vector 24  Net802154MultiGateway.host[1].wrappedHost.trafficgen  PRR:vector  ETV
attr interpolationmode  none
attr source  count(sinkRcvdPk)/count(sentPk)
attr title  "PRR, vector"
vector 22  Net802154MultiGateway.host[1].wrappedHost.trafficgen  sinkRcvdPk:vector(packetBytes)  ETV
attr interpolationmode  none
attr source  sinkRcvdPk
attr title  "own packets received by sink, vector(packetBytes)"
vector 174  Net802154MultiGateway.host[12].wrappedHost.trafficgen  sentPk:vector(packetBytes)  ETV
attr interpolationmode  none
attr source  sentPk
attr title  "packets sent, vector(packetBytes)"
vector 178  Net802154MultiGateway.host[12].wrappedHost.trafficgen  PRR:vector  ETV
attr interpolationmode  none
attr source  count(sinkRcvdPk)/count(sentPk)
attr title  "PRR, vector"
vector 176  Net802154MultiGateway.host[12].wrappedHost.trafficgen  sinkRcvdPk:vector(packetBytes)  ETV
attr interpolationmode  none
attr source  sinkRcvdPk
attr title  "own packets received by sink, vector(packetBytes)"
vector 566  Net802154MultiGateway.host[40].wrappedHost.trafficgen  sentPk:vector(packetBytes)  ETV
attr interpolationmode  none
attr source  sentPk
attr title  "packets sent, vector(packetBytes)"
vector 570  Net802154MultiGateway.host[40].wrappedHost.trafficgen  PRR:vector  ETV
attr interpolationmode  none
attr source  count(sinkRcvdPk)/count(sentPk)
attr title  "PRR, vector"
vector 568  Net802154MultiGateway.host[40].wrappedHost.trafficgen  sinkRcvdPk:vector(packetBytes)  ETV
attr interpolationmode  none
attr source  sinkRcvdPk
attr title  "own packets received by sink, vector(packetBytes)"
vector 90  Net802154MultiGateway.host[6].wrappedHost.trafficgen  sentPk:vector(packetBytes)  ETV
attr interpolationmode  none
attr source  sentPk
attr title  "packets sent, vector(packetBytes)"
vector 94  Net802154MultiGateway.host[6].wrappedHost.trafficgen  PRR:vector  ETV
attr interpolationmode  none
attr source  count(sinkRcvdPk)/count(sentPk)
attr title  "PRR, vector"
vector 92  Net802154MultiGateway.host[6].wrappedHost.trafficgen  sinkRcvdPk:vector(packetBytes)  ETV
attr interpolationmode  none
attr source  sinkRcvdPk
attr title  "own packets received by sink, vector(packetBytes)"
vector 468  Net802154MultiGateway.host[33].wrappedHost.trafficgen  sentPk:vector(packetBytes)  ETV
attr interpolationmode  none
attr source  sentPk
attr title  "packets sent, vector(packetBytes)"
vector 472  Net802154MultiGateway.host[33].wrappedHost.trafficgen  PRR:vector  ETV
attr interpolationmode  none
attr source  count(sinkRcvdPk)/count(sentPk)
attr title  "PRR, vector"
vector 470  Net802154MultiGateway.host[33].wrappedHost.trafficgen  sinkRcvdPk:vector(packetBytes)  ETV
attr interpolationmode  none
attr source  sinkRcvdPk
attr title  "own packets received by sink, vector(packetBytes)"
5	1045037	161.037849618591	76
5	1045232	161.063054425022	76
5	1045463	161.076837771613	76
5	1045948	161.084566156854	76
5	1046064	161.092865467503	76
5	1046198	161.150096429771	76
5	1046323	161.196668774229	76
5	1046516	161.218000092403	76
5	1046740	161.24439703046	76
5	1047107	161.301255280107	76
5	1047236	161.306645390545	76
5	1047453	161.34751612391	76
5	1047654	161.369308892664	76
5	1047871	161.398090456935	76
5	1048107	161.453851024643	76
5	1048217	161.458455061988	76
5	1048352	161.464484755684	76
5	1048463	161.469220511181	76
5	1048850	161.494768724044	76
5	1049067	161.520288326868	76
5	1049396	161.544249133992	76
5	1049519	161.5531199259	76
5	1049971	161.686685742688	76
5	1050272	161.693430083606	76
5	1050381	161.697851677281	76
5	1050511	161.715625979554	76
5	1050644	161.759881062477	76
5	1051039	161.776000719994	76
5	1051190	161.781440221515	76
5	1051432	161.792478196323	76
5	1051752	161.808824377871	76
5	1051924	161.817195006771	76
5	1052043	161.82951646176	76
5	1052273	161.845545479842	76
5	1052478	161.898898177071	76
5	1052681	161.91516026852	76
5	1052877	161.955599854528	76
5	1053094	162.010022022415	76
5	1053361	162.055050595385	76
5	1053713	162.067825340982	76
5	1053871	162.075816626694	76
5	1054001	162.085410343945	76
5	1054218	162.098060772657	76
5	1054638	162.127440179275	76
5	1055049	162.138268503851	76
5	1055223	162.142807860745	76
5	1055335	162.148146627945	76
5	1055739	162.182463100953	76
5	1055889	162.190589769549	76
5	1056098	162.234581699653	76
5	1056382	162.274986113867	76
5	1056518	162.298838974167	76
5	1056715	162.323182831772	76
5	1056947	162.336586949064	76
5	1057152	162.400877209868	76
5	1057438	162.44784467273	76
5	1057641	162.476105082095	76
5	1057845	162.489735436226	76
5	1058080	162.501293562625	76
5	1058427	162.511710061259	76
5	1058627	162.518774661471	76
5	1058838	162.547047884286	76
5	1059132	162.599443570249	76
5	1059327	162.610094121983	76
5	1059480	162.629971460886	76
5	1059852	162.644246259235	76
5	1060011	162.652170245015	76
5	1060298	162.702693311044	76
5	1060423	162.70787746972	76
5	1060676	162.726113398431	76
5	1060863	162.817382223183	76
5	1060987	162.831638674446	76
5	1061166	162.864114576509	76
5	1061371	162.888397768589	76
5	1061655	162.945838652158	76
5	1061772	162.957970330796	76
5	1062059	163.047701026094	76
5	1062273	163.062539024154	76
5	1062443	163.123141916261	76
5	1062760	163.138704470026	76
5	1062874	163.1466701492	76
5	1063012	163.156474902349	76
5	1063127	163.16231254735	76
5	1063392	163.201176626661	76
5	1063563	163.209840834256	76
5	1063792	163.216105721731	76
5	1063932	163.22400271587	76
5	1064230	163.264096567779	76
5	1064450	163.278890193633	76
5	1064568	163.299591243256	76
5	1064783	163.320106201613	76
5	1065182	163.359085898346	76
5	1065305	163.364052198425	76
5	1065593	163.382197785038	76
5	1065723	163.394240687453	76
5	1065877	163.401705946287	76
5	1066073	163.417688150032	76
5	1066398	163.443478878943	76
5	1066631	163.451351966365	76
5	1066726	163.455922349495	76
5	1066959	163.479508275689	76
5	1067213	163.625381498963	76
5	1067612	163.691206176755	76
5	1067812	163.726572711956	76
5	1068024	163.739409592645	76
5	1068257	163.754563064275	76
5	1068492	163.761422089166	76
5	1068602	163.766276135885	76
5	1068813	163.783534230155	76
5	1068927	163.788467739373	76
5	1069149	163.799526525195	76
5	1069345	163.879010757817	76
5	1069659	163.987457080855	76
5	1070049	164.165017239206	76
5	1070268	164.1738903075	76
5	1070515	164.200550818893	76
5	1070633	164.222118417082	76
5	1070944	164.253414822734	76
5	1071181	164.266476372628	76
5	1071297	164.331673030592	76
5	1071599	164.406816906912	76
5	1071816	164.43246275143	76
5	1072140	164.449058677321	76
5	1072297	164.457370221843	76
5	1072515	164.479656700743	76
5	1072739	164.509793094563	76
5	1073004	164.538711457747	76
5	1073231	164.55226479022	76
5	1073391	164.557524533231	76
5	1073604	164.569515851591	76
5	1073722	164.583083900718	76
5	1073934	164.614666114864	76
5	1074075	164.683158636244	76
5	1074370	164.699890368297	76
5	1074579	164.715111580648	76
5	1075255	164.828910587048	76
5	1075550	164.884262041964	76
5	1076041	164.934262016479	76
5	1076325	164.963746467663	76
5	1076545	165.078001939827	76
5	1076658	165.083827007233	76
5	1076775	165.093851403493	76
5	1076892	165.129979811605	76
5	1077086	165.199407714111	76
5	1077318	165.253180137264	76
5	1077536	165.264168476423	76
5	1077772	165.28378977052	76
5	1077894	165.291081078806	76
5	1078030	165.329961809327	76
5	1078144	165.376700737244	76
5	1078268	165.409570138494	76
5	1078545	165.437249539758	76
5	1078769	165.475120962389	76
5	1079056	165.508064129825	76
5	1079281	165.530182482048	76
5	1079410	165.599681340066	76
5	1079609	165.662792974902	76
5	1079747	165.710509981045	76
5	1079936	165.745984380949	76
5	1080054	165.764570874787	76
5	1080269	165.798840137905	76
5	1080403	165.820393810924	76
5	1080688	165.879621950134	76
5	1080985	165.955416853377	76
5	1081119	166.00037199888	76
5	1081332	166.026493369251	76
5	1081538	166.052499959601	76
5	1081762	166.066812448917	76
5	1081969	166.18528949241	76
5	1082192	166.27327993622	76
5	1082315	166.349982011643	76
5	1082422	166.355458459748	76
5	1082530	166.420241420499	76
5	1082825	166.477722348511	76
5	1082961	166.494803579552	76
5	1083164	166.5438364701	76
5	1083374	166.599620174688	76
5	1083566	166.609555381524	76
5	1083791	166.652973373518	76
5	1083990	166.675562824838	76
5	1084207	166.71555536039	76
5	1084431	166.761866607456	76
5	1084644	166.7824431854	76
5	1084849	166.814813693328	76
5	1085137	166.858960670219	76
5	1085250	166.863798155454	76
5	1085470	166.878397877778	76
5	1085678	166.91608082007	76
5	1085966	166.931786166041	76
5	1086085	166.988946764159	76
5	1086297	167.000588029545	76
5	1086524	167.020675237753	76
5	1086771	167.037442311114	76
5	1086988	167.101357114323	76
5	1087201	167.117969978542	76
5	1087334	167.126955091286	76
5	1087501	167.132562673164	76
5	1087723	167.145688609336	76
5	1087836	167.150151234667	76
5	1088166	167.17680807018	76
5	1088325	167.182588099546	76
5	1088543	167.363275703799	76
5	1088749	167.390571378635	76
5	1088880	167.407262570476	76
5	1089001	167.413921582254	76
5	1089221	167.424270731041	76
5	1089340	167.46223992025	76
5	1089463	167.485732675861	76
5	1089783	167.504775124798	76
5	1089900	167.510879727387	76
5	1090119	167.534481559534	76
5	1090422	167.556798819289	76
5	1090551	167.648770396308	76
5	1090856	167.681715267955	76
5	1091071	167.703249120303	76
5	1091188	167.732199628797	76
5	1091460	167.785025561873	76
5	1091780	167.795379182897	76
5	1091908	167.800011948002	76
5	1092018	167.857651471134	76
5	1092233	167.889470041388	76
5	1092367	167.897332140542	76
5	1092752	167.920620491158	76
5	1092869	167.928577977772	76
5	1093008	167.957366222261	76
5	1093210	167.974046286432	76
5	1093417	168.018470887231	76
5	1093532	168.028143958828	76
5	1093823	168.045189850601	76
5	1093998	168.054675663126	76
5	1094204	168.06794878181	76
5	1094400	168.089135954558	76
5	1094617	168.152113512929	76
5	1094831	168.183381444926	76
5	1094949	168.196779981171	76
5	1095171	168.211978788465	76
5	1095300	168.219142819853	76
5	1095520	168.269103589571	76
5	1095615	168.274299218131	76
5	1095834	168.291647931644	76
5	1096050	168.328738326158	76
5	1096224	168.33387295655	76
5	1096404	168.340998088553	76
5	1096518	168.346198379133	76
5	1096655	168.384800814248	76
5	1096852	168.399608275263	76
5	1096986	168.500045973945	76
5	1097090	168.508344072622	76
5	1097307	168.530503691066	76
5	1097516	168.606790822745	76
5	1097717	168.619267428691	76
5	1098044	168.662078093254	76
5	1098229	168.672086013384	76
5	1098379	168.680621041162	76
5	1098512	168.68538011869	76
5	1098843	168.699702997191	76
5	1098958	168.708797050436	76
5	1099181	168.793725150492	76
5	1099377	168.808977701563	76
5	1099511	168.88624570866	76
5	1099732	168.924441153782	76
5	1099966	168.93691270772	76
5	1100183	168.988293172806	76
5	1100402	169.012427508014	76
5	1100515	169.019322166782	76
5	1100739	169.1353460447	76
5	1100850	169.143093780327	76
5	1101171	169.181709614022	76
5	1101273	169.187475769589	76
5	1101481	169.198261183933	76
5	1101719	169.207203482473	76
5	1102020	169.251435939005	76
5	1102158	169.282974127803	76
5	1102355	169.325655592817	76
5	1102609	169.339735505605	76
5	1102884	169.353356197886	76
5	1103126	169.366090672369	76
5	1103260	169.372212843305	76
5	1103458	169.431898374652	76
5	1103594	169.457269791168	76
5	1103708	169.479279052184	76
5	1103920	169.533382029208	76
5	1104210	169.626225093449	76
5	1104439	169.643855029704	76
5	1104675	169.652444604186	76
5	1104848	169.660340737143	76
5	1105024	169.665519380849	76
5	1105217	169.696808428602	76
5	1105351	169.709245038041	76
5	1105476	169.790726156842	76
5	1105764	169.906311040938	76
5	1105977	169.924193680096	76
5	1106113	169.962497446818	76
5	1106495	170.03959134041	76
5	1106631	170.045502652786	76
5	1106792	170.051173737368	76
5	1107324	170.142441153061	76
5	1107680	170.154695827558	76
5	1107899	170.203579753292	76
5	1108035	170.218638986805	76
5	1108285	170.298822908127	76
5	1108437	170.306687296195	76
5	1108637	170.328623438773	76
5	1109178	170.397853904985	76
5	1109447	170.406734358575	76
5	1109692	170.41445499486	76
5	1109898	170.421866130029	76
5	1110282	170.473510337028	76
5	1110394	170.478894563389	76
5	1110771	170.587993699503	76
5	1111084	170.649739451452	76
5	1111208	170.661780933426	76
5	1111314	170.739272767089	76
5	1111536	170.760602195839	76
5	1111997	170.84748610753	76
5	1112131	170.855464757423	76
5	1112249	170.860329291125	76
5	1112395	170.867573949816	76
5	1112807	170.880373954026	76
5	1112971	170.88573547053	76
5	1113206	170.907013178653	76
5	1113413	170.915633151153	76
5	1113667	170.927115503941	76
5	1113977	170.941259350776	76
5	1114288	170.971437088344	76
5	1114527	170.983842327572	76
5	1114771	171.027694604813	76
5	1114918	171.035286081634	76
5	1115034	171.063565759787	76
5	1115173	171.072071473152	76
5	1115456	171.08564243794	76
5	1115675	171.129501120111	76
5	1115883	171.141994469366	76
5	1116246	171.18153278824	76
5	1116470	171.204376132012	76
5	1116673	171.240455578751	76
5	1116952	171.251998825298	76
5	1117171	171.324483255668	76
5	1117290	171.330722593841	76
5	1117638	171.406124239186	76
5	1117921	171.426070134273	76
5	1118069	171.431749697873	76
5	1118455	171.560007070764	76
5	1118724	171.596893241658	76
5	1118934	171.646228170401	76
5	1119061	171.652825042968	76
5	1119260	171.700811962437	76
5	1119569	171.717191764189	76
5	1119678	171.721733895898	76
5	1120068	171.74589691367	76
5	1120178	171.750313868082	76
5	1120405	171.766152600539	76
5	1120710	171.859627750408	76
5	1120915	171.87483852979	76
5	1121235	171.913041428512	76
5	1121345	171.958914408934	76
5	1121479	171.971257621289	76
5	1121575	171.980712780307	76
5	1121855	172.002916442007	76
5	1122063	172.014581509413	76
5	1122233	172.027998092436	76
5	1122474	172.053384030724	76
5	1122646	172.061795341757	76
5	1122781	172.068010543539	76
5	1122980	172.082704248219	76
5	1123251	172.113619924597	76
5	1123411	172.121761364112	76
5	1123619	172.171486747911	76
5	1123744	172.231334944167	76
5	1124018	172.25137066627	76
5	1124318	172.269334895797	76
5	1124504	172.450092481932	76
5	1124706	172.461781022146	76
5	1124923	172.492973669888	76
5	1125046	172.535532735573	76
5	1125173	172.541993524847	76
5	1125380	172.58387157979	76
5	1125516	172.625154552131	76
5	1125633	172.667536131423	76
5	1125750	172.673701872222	76
5	1125874	172.758520006542	76
5	1126095	172.776869357791	76
5	1126434	172.791949228762	76
5	1126587	172.800089000639	76
5	1126873	172.845214748988	76
5	1127009	172.896082033379	76
5	1127133	172.915562818562	76
5	1127332	172.936025985868	76
5	1127430	172.972308463364	76
5	1127870	173.115934804405	76
5	1128089	173.127788089623	76
5	1128210	173.13630229693	76
5	1128409	173.179320485232	76
5	1128578	173.203141681337	76
5	1128794	173.214747317595	76
5	1128912	173.309469562191	76
5	1129127	173.32349127283	76
5	1129380	173.370822295043	76
5	1129506	173.381487974607	76
5	1130025	173.44548693678	76
5	1130297	173.45327162317	76
5	1130430	173.458638296126	76
5	1130642	173.487974430827	76
5	1130939	173.540855318197	76
5	1131040	173.545892395631	76
5	1131341	173.575123828734	76
5	1131622	173.582107775083	76
5	1131738	173.588365796001	76
5	1132038	173.604096619344	76
5	1132258	173.615283649423	76
5	1132452	173.639952293657	76
5	1132803	173.661776028917	76
5	1133092	173.675628909414	76
5	1133210	173.696095920903	76
5	1133344	173.753015637555	76
5	1133506	173.814312185458	76
5	1133623	173.869459137264	76
5	1133827	173.917656360192	76
5	1134184	174.029394018947	76
5	1134380	174.050710848801	76
5	1134694	174.075610826101	76
5	1134811	174.08740005937	76
5	1135183	174.108414520907	76
5	1135320	174.133390280666	76
5	1135447	174.142728148025	76
5	1135765	174.157247955893	76
5	1136062	174.181522739391	76
5	1136400	174.268062270447	76
5	1136625	174.28128491883	76
5	1136939	174.332447742887	76
5	1137112	174.338360766675	76
5	1137283	174.344730412976	76
5	1137551	174.424796058653	76
5	1137683	174.457445564226	76
5	1137808	174.479852692475	76
5	1138107	174.509375783818	76
5	1138306	174.516233509179	76
5	1138408	174.531424435013	76
5	1138620	174.559822827267	76
5	1138738	174.601230557727	76
5	1139130	174.653423181132	76
5	1139404	174.724903608205	76
5	1139601	174.745213238727	76
5	1140121	174.766650838465	76
5	1140256	174.772218661289	76
5	1140474	174.784775373969	76
5	1140849	174.852549221119	76
5	1141072	174.896463023006	76
5	1141262	175.010628252712	76
5	1141406	175.016869731633	76
5	1141613	175.043577959284	76
5	1141829	175.114339766523	76
5	1142142	175.15091505875	76
5	1142351	175.17015165081	76
5	1142487	175.2615152955	76
5	1142777	175.306836413063	76
5	1142975	175.318220732055	76
5	1143109	175.360962467381	76
5	1143528	175.378323101384	76
5	1143648	175.382894725055	76
5	1143753	175.403102036304	76
5	1143974	175.417248441346	76
5	1144254	175.474276100481	76
5	1144479	175.532906153463	76
5	1144684	175.550667913659	76
5	1144966	175.639001673856	76
5	1145263	175.66732412577	76
5	1145480	175.699109637205	76
5	1145700	175.773837242481	76
5	1145924	175.784920736957	76
5	1146177	175.79731841442	76
5	1146444	175.805968354712	76
5	1146567	175.815915957814	76
5	1146784	175.855350768175	76
5	1147112	175.879874154256	76
5	1147235	175.886373913925	76
5	1147514	175.940442922237	76
5	1147731	175.961525301138	76
5	1147945	176.085521315861	76
5	1148172	176.123424927912	76
5	1148376	176.152379540478	76
5	1148610	176.164311992145	76
5	1148800	176.171249039672	76
5	1148954	176.179014088994	76
5	1149206	176.188724522246	76
5	1149328	176.206293708638	76
5	1149623	176.291785802056	76
5	1149840	176.31566739148	76
5	1150179	176.421683952764	76
5	1150373	176.429972864471	76
5	1150588	176.47979318236	76
5	1150895	176.496821855487	76
5	1151128	176.5082552661	76
5	1151308	176.513984232596	76
5	1151603	176.550549730219	76
5	1151783	176.555572413175	76
5	1151943	176.562515164066	76
5	1152123	176.569471816716	76
5	1152364	176.581156051622	76
5	1152498	176.604757298656	76
5	1152604	176.666600961442	76
5	1152821	176.731832569164	76
5	1153018	176.789011975044	76
5	1153138	176.879756849274	76
5	1153333	176.896671237958	76
5	1153571	176.912857655523	76
5	1153761	176.920386428842	76
5	1153976	176.945374832044	76
5	1154181	177.006703941878	76
5	1154388	177.036890548346	76
5	1154603	177.052998897881	76
5	1154805	177.117607334537	76
5	1154923	177.234716244741	76
5	1155135	177.252095956451	76
5	1155270	177.280370180687	76
5	1155477	177.306096053522	76
5	1155595	177.341673670263	76
5	1155789	177.372002269016	76
5	1156189	177.447030056358	76
5	1156317	177.451668655222	76
5	1156535	177.546641305999	76
5	1156848	177.575088689739	76
5	1157163	177.703730772956	76
5	1157329	177.711447186809	76
5	1157549	177.721950250244	76
5	1157855	177.784133015882	76
5	1157983	177.799367298291	76
5	1158182	177.820334303287	76
5	1158298	177.9062758888	76
5	1158500	177.991322136995	76
5	1158629	177.99650404337	76
5	1158915	178.023608698626	76
5	1159139	178.061557937331	76
5	1159464	178.15134689246	76
5	1159695	178.163960269228	76
5	1159918	178.182992293546	76
5	1160124	178.220241688216	76
5	1160325	178.243081892609	76
5	1160458	178.279464107227	76
5	1160736	178.290902378758	76
5	1160913	178.300482749221	76
5	1161110	178.323048066586	76
5	1161441	178.339756556416	76
5	1161603	178.34656068272	76
5	1161817	178.385362541413	76
5	1161936	178.421757041142	76
5	1162135	178.462087359044	76
5	1162358	178.473625985632	76
5	1162557	178.530676222821	76
5	1162774	178.571645960422	76
5	1162999	178.586346606159	76
5	1163109	178.634456444712	76
5	1163321	178.691508490381	76
5	1163455	178.731010685256	76
5	1163780	178.770655130529	76
5	1163972	178.777148705417	76
5	1164169	178.811080974942	76
5	1164392	178.874267397081	76
5	1164690	178.959633911062	76
5	1164891	178.965550093193	76
5	1165175	179.040061245358	76
5	1165475	179.071235215666	76
5	1165626	179.111091227704	76
5	1165819	179.118258099738	76
5	1166019	179.142589878116	76
5	1166358	179.156217249764	76
5	1166476	179.165464823203	76
5	1166693	179.297813225018	76
5	1166898	179.342544168107	76
5	1167280	179.367313753001	76
5	1167553	179.37525789102	76
5	1167766	179.381318929016	76
5	1168095	179.391818928084	76
5	1168284	179.399571073888	76
5	1168463	179.404426354106	76
5	1168597	179.409869031442	76
5	1168906	179.494501085476	76
5	1169014	179.498959309861	76
5	1169320	179.520389310141	76
5	1169571	179.537311735285	76
5	1169686	179.545111590649	76
5	1169836	179.637711083866	76
5	1170135	179.649051869917	76
5	1170362	179.663739686179	76
5	1170674	179.69311624533	76
5	1170767	179.698145277624	76
5	1170986	179.731296039408	76
5	1171200	179.803072068878	76
5	1171440	179.833365021708	76
5	1171595	179.839718348681	76
5	1171809	179.855289867306	76
5	1172015	179.929447706916	76
5	1172344	179.981201378685	76
5	1172442	179.991335387399	76
5	1172909	180.030184565763	76
5	1173091	180.036802650027	76
5	1173334	180.043768711216	76
5	1173563	180.058725123311	76
5	1173683	180.105737650167	76
5	1174161	180.214053389416	76
5	1174465	180.226261111217	76
5	1174772	180.256976494804	76
5	1174992	180.263257251922	76
5	1175179	180.269880421098	76
5	1175299	180.282548386015	76
5	1175528	180.292982100432	76
5	1175671	180.324213908438	76
5	1175774	180.331902867404	76
5	1175994	180.382975862438	76
5	1176202	180.413593963539	76
5	1176396	180.451334675667	76
5	1176532	180.496113461833	76
5	1176726	180.510034466359	76
5	1177150	180.557294285945	76
5	1177347	180.57140820447	76
5	1177564	180.590957205363	76
5	1177770	180.663403854507	76
5	1177985	180.69323267374	76
5	1178647	180.896994070041	76
5	1178753	180.90330410716	76
5	1178976	180.925843036493	76
5	1179298	180.939911191281	76
5	1179464	180.945375653881	76
5	1179658	180.951412534776	76
5	1179852	180.958782453625	76
5	1180199	180.970530135206	76
5	1180371	180.975775212957	76
5	1180544	180.982928018287	76
5	1180762	181.013025661404	76
5	1181115	181.141953616954	76
5	1181359	181.195517736615	76
5	1181637	181.210783017304	76
5	1181964	181.261460578718	76
5	1182252	181.280803898851	76
5	1182547	181.329174354545	76
5	1182704	181.334487718195	76
5	1182995	181.370309219105	76
5	1183151	181.391630775448	76
5	1183368	181.402919692348	76
5	1183601	181.460196016256	76
5	1183892	181.475814844931	76
5	1184183	181.483822387633	76
5	1184348	181.490185962034	76
5	1184615	181.503412662396	76
5	1184908	181.512294291812	76
5	1185131	181.560443687301	76
5	1185332	181.589442329551	76
5	1185715	181.605616697676	76
5	1186024	181.621855883999	76
5	1186438	181.693536302677	76
5	1186577	181.700301910342	76
5	1186771	181.714627879711	76
5	1187119	181.847599172616	76
5	1187447	181.911808011353	76
5	1187746	181.934758744772	76
5	1188082	181.94597374513	76
5	1188192	181.953307066799	76
5	1188558	182.000055682483	76
5	1188696	182.016830155935	76
5	1188935	182.030049449848	76
5	1189160	182.058496189827	76
5	1189509	182.153793056607	76
5	1189650	182.161078536606	76
5	1189885	182.171342104853	76
5	1190138	182.181762843445	76
5	1190313	182.187565212923	76
5	1190594	182.195909147203	76
5	1190824	182.208849829333	76
5	1190942	182.235846890362	76
5	1191154	182.259502950672	76
5	1191427	182.272759430992	76
5	1191727	182.305187619004	76
5	1191845	182.323443404415	76
5	1192030	182.369095274075	76
5	1192164	182.375184068295	76
5	1192489	182.427589260076	76
5	1192713	182.451668449567	76
5	1193064	182.467494541925	76
5	1193194	182.472212536335	76
5	1193401	182.545877995653	76
5	1193695	182.609885376846	76
5	1194062	182.663313233213	76
5	1194239	182.669346951416	76
5	1194665	182.681398100661	76
5	1194794	182.68760734431	76
5	1194986	182.717018641963	76
5	1195244	182.774433305062	76
5	1195458	182.813905691406	76
5	1195755	182.857069047159	76
5	1195972	182.918020125281	76
5	1196495	183.030509206121	76
5	1196704	183.045897730464	76
5	1196921	183.107568577707	76
5	1197067	183.115617996696	76
5	1197251	183.122180818784	76
5	1197450	183.140500356667	76
5	1197697	183.156306335058	76
5	1197894	183.16365820962	76
5	1198185	183.200349069919	76
5	1198286	183.205517507082	76
5	1198504	183.237269896675	76
5	1198768	183.266354839147	76
5	1199010	183.31032586262	76
5	1199384	183.324046702021	76
5	1199708	183.338654744054	76
5	1199936	183.391435134444	76
5	1200049	183.39758020185	76
5	1200150	183.444633416788	76
5	1200471	183.50036154162	76
5	1200601	183.556436527638	76
5	1200803	183.590207950633	76
5	1201089	183.628333966974	76
5	1201302	183.643698336681	76
5	1201428	183.649675794596	76
5	1201627	183.687180426056	76
5	1201980	183.729225534422	76
5	1202213	183.769807293128	76
5	1202460	183.781638888786	76
5	1202791	183.791340557984	76
5	1202991	183.798765123106	76
5	1203247	183.808491228235	76
5	1203542	183.81952998892	76
5	1203748	183.827026241719	76
5	1203878	183.84801323916	76
5	1204184	183.864707546636	76
5	1204314	183.900365365682	76
5	1204480	183.930104115132	76
5	1204721	184.071488313025	76
5	1204933	184.157848947101	76
5	1205031	184.192820070124	76
5	1205243	184.218073060989	76
5	1205465	184.245701652035	76
5	1205758	184.261781746592	76
5	1205972	184.269734640501	76
5	1206261	184.354381797254	76
5	1206390	184.360034016749	76
5	1206872	184.443744463079	76
5	1207099	184.465315457782	76
5	1207317	184.518772697182	76
5	1207448	184.527144573372	76
5	1207689	184.563918260267	76
5	1207784	184.571292807842	76
5	1208011	184.608020502176	76
5	1208290	184.624996018358	76
5	1208476	184.703167116871	76
5	1208753	184.744480042201	76
5	1208971	184.789066113574	76
5	1209354	184.846963840086	76
5	1209472	184.886539502027	76
5	1209840	184.92224153819	76
5	1210059	184.956202080891	76
5	1210262	184.980756575387	76
5	1210519	185.059182794372	76
5	1210728	185.149438069326	76
5	1210927	185.176411047198	76
5	1211141	185.257422232256	76
5	1211358	185.291583016845	76
5	1211575	185.367062719494	76
5	1211908	185.408275525761	76
5	1212068	185.413812499731	76
5	1212190	185.418890402773	76
5	1212314	185.427225098281	76
5	1212510	185.47112780376	76
5	1212734	185.496107125016	76
5	1213046	185.53272844762	76
5	1213270	185.547401672401	76
5	1213484	185.558819270992	76
5	1213691	185.621822982594	76
5	1214015	185.678213868125	76
5	1214142	185.683986954029	76
5	1214356	185.801547521875	76
5	1214494	185.814473410148	76
5	1214705	185.826020242565	76
5	1214992	185.844413744164	76
5	1215126	185.856335805668	76
5	1215420	185.89221750024	76
5	1215530	185.897775425749	76
5	1215649	185.922878401293	76
5	1215870	185.966427338391	76
5	1215986	185.982050001588	76
5	1216273	186.092386646248	76
5	1216488	186.117748804767	76
5	1216625	186.144567224393	76
5	1216869	186.153523213836	76
5	1216962	186.158245332054	76
5	1217199	186.21905977108	76
5	1217433	186.229431396314	76
5	1217571	186.24474746359	76
5	1217770	186.273746715173	76
5	1217994	186.356305962151	76
5	1218306	186.373410174339	76
5	1218487	186.379992255432	76
5	1218713	186.450547416419	76
5	1218884	186.460580265924	76
5	1219008	186.467738624757	76
5	1219212	186.500967417966	76
5	1219347	186.515750714375	76
5	1219554	186.677184009384	76
5	1219672	186.71389045404	76
5	1219894	186.750440781008	76
5	1220096	186.778606300447	76
5	1220296	186.792521118405	76
5	1220513	186.826295642819	76
5	1220649	186.863473430774	76
5	1220854	186.888336840657	76
5	1221142	186.907182660122	76
5	1221367	186.923478585893	76
5	1221584	186.937204562331	76
5	1222002	186.953110462238	76
5	1222264	186.96308038285	76
5	1222428	186.973487419886	76
5	1222531	186.982544327555	76
5	1222664	186.994016637265	76
5	1222914	187.003791335246	76
5	1223133	187.014075871005	76
5	1223341	187.039247599789	76
5	1223449	187.048338012919	76
5	1223686	187.061972363461	76
5	1223926	187.07503099676	76
5	1224149	187.14972497729	76
5	1224265	187.237998765326	76
5	1224556	187.285688351654	76
5	1224923	187.300496486453	76
5	1225055	187.309159629979	76
5	1225191	187.337971221566	76
5	1225707	187.40094187001	76
5	1225926	187.40733615833	76
5	1226063	187.412017894888	76
5	1226282	187.460594967065	76
5	1226481	187.621525262572	76
5	1226781	187.650609328421	76
5	1226995	187.673673878977	76
5	1227131	187.679894881188	76
5	1227247	187.693237308153	76
5	1227459	187.788127878701	76
5	1227756	187.815660234852	76
5	1227996	187.830084477714	76
5	1228210	187.916592845489	76
5	1228533	187.955853053396	76
5	1228742	187.997545494941	76
5	1228878	188.059962683812	76
5	1228993	188.168731959998	76
5	1229206	188.203076450736	76
5	1229306	188.255440078932	76
5	1229439	188.387614975162	76
5	1229622	188.423802515564	76
5	1229757	188.430384554296	76
5	1229958	188.526657965281	76
5	1230163	188.544112531463	76
5	1230263	188.564619856155	76
5	1230398	188.616551350932	76
5	1230516	188.643746779533	76
5	1230819	188.680939269166	76
5	1231223	188.70151845167	76
5	1231355	188.708177926416	76
5	1231651	188.742606965908	76
5	1231876	188.769506071488	76
5	1232165	188.788756020226	76
5	1232481	188.920024694192	76
5	1232729	188.934285092203	76
5	1232964	188.947749609076	76
5	1233187	188.991832801518	76
5	1233308	189.102210598879	76
5	1233497	189.112057360076	76
5	1233653	189.14682188914	76
5	1234013	189.159445791631	76
5	1234172	189.168662533009	76
5	1234292	189.285491579515	76
5	1234497	189.378441499293	76
5	1234616	189.390792946972	76
5	1234893	189.413585480868	76
5	1235190	189.443703017204	76
5	1235413	189.477570681843	76
5	1235530	189.697974250003	76
5	1235831	189.729993660998	76
5	1236068	189.744902520198	76
5	1236285	189.807642522509	76
5	1236532	189.911507749804	76
5	1236683	189.916513008472	76
5	1237093	189.963171655392	76
5	1237211	189.988184521825	76
5	1237406	190.00770440202	76
5	1237628	190.031163376941	76
5	1238051	190.160497397016	76
5	1238279	190.243838420155	76
5	1238659	190.370764217362	76
5	1239015	190.398634675692	76
5	1239382	190.429038465164	76
5	1239516	190.488766774084	76
5	1239622	190.514401526865	76
5	1240008	190.544207645681	76
5	1240142	190.58828764531	76
5	1240498	190.636403538694	76
5	1240880	190.762808970854	76
5	1241056	190.767834139036	76
5	1241214	190.772979786452	76
5	1241440	190.785755174472	76
5	1241641	190.819478693395	76
5	1241757	190.856948295563	76
5	1242129	190.943933740482	76
5	1242287	190.950448772644	76
5	1242427	191.040385069827	76
5	1242618	191.046568185616	76
5	1242833	191.09022502127	76
5	1243237	191.102706618736	76
5	1243436	191.110108208435	76
5	1243563	191.114746237906	76
5	1243680	191.168268230572	76
5	1244037	191.204945604247	76
5	1244254	191.213293450382	76
5	1244430	191.239795367649	76
5	1244711	191.274099033677	76
5	1245117	191.305496801352	76
5	1245241	191.313619632972	76
5	1245391	191.353183451517	76
5	1245586	191.360163303138	76
5	1245781	191.391125482246	76
5	1246162	191.431637268683	76
5	1246535	191.454004202167	76
5	1246672	191.459536294352	76
5	1246900	191.482867633995	76
5	1247117	191.532807248411	76
5	1247217	191.541011783297	76
5	1247442	191.555393306978	76
5	1247658	191.660407359907	76
5	1248055	191.788510944592	76
5	1248173	191.793568169996	76
5	1248383	191.809534887319	76
5	1248595	191.861673730333	76
5	1248794	191.979851308718	76
5	1249139	192.051860307266	76
5	1249407	192.065891554242	76
[...]
850	1814118	276.1336278923	1
850	1825372	277.955690937966	0.98305084745763
850	1825776	277.974876005606	1
850	1847808	281.687845450069	0.98333333333333
850	1848153	281.699590517709	1
850	1894104	288.698232405457	0.98360655737705
850	1894348	288.707417473097	1
850	1929475	293.880884556015	0.98387096774194
850	1929615	293.889429623655	1
850	1941714	296.090735773187	0.98412698412698
850	1941971	296.103120840827	1
850	1952894	297.810539100873	0.984375
850	1953032	297.821324168513	1
850	1955426	298.385974228097	0.98461538461538
850	1955564	298.395479295737	1
850	1969752	300.444165132185	0.98484848484848
850	1970383	300.467814199825	1
850	1982016	302.092252981361	0.98507462686567
850	1982154	302.102078049001	1
850	1987606	302.872244121837	0.98529411764706
850	1987785	302.884949189477	1
850	1995455	303.966916228934	0.98550724637681
850	1995688	303.975781296574	1
850	1997182	304.106576326566	0.98571428571429
850	1997321	304.117681394206	1
850	2033878	310.111743886413	0.98591549295775
850	2034023	310.123168954053	1
850	2070155	315.65963693591	0.98611111111111
850	2070470	315.67074200355	1
850	2094660	319.430240365614	0.98630136986301
850	2094798	319.442625433254	1
850	2101297	320.343137430875	0.98648648648649
850	2101466	320.353282498515	1
850	2115700	322.207921345382	0.98666666666667
850	2116219	322.230242413022	1
850	2119489	322.856372877331	0.98684210526316
850	2119628	322.866197944971	1
850	2130313	324.275029640785	0.98701298701299
850	2130546	324.284534708425	1
850	2131260	324.495884345691	0.98717948717949
850	2131401	324.507309413331	1
850	2174488	330.937027916145	0.9873417721519
850	2174626	330.946212983785	1
850	2257433	343.083489687799	0.9875
850	2257801	343.093634755439	1
850	2267405	344.487361485734	0.98765432098765
850	2267744	344.501794553374	1
850	2293566	348.54648150248	0.98780487804878
850	2293704	348.55886657012	1
850	2296808	349.085652413639	0.98795180722892
850	2296948	349.094197481279	1
850	2304259	350.34122072256	0.98809523809524
850	2304513	350.3526457902	1
850	2305464	350.510295462514	0.98823529411765
850	2305605	350.520760530154	1
850	2306451	350.625473627828	0.98837209302326
850	2306663	350.635298695468	1
850	2334087	354.33350631315	0.98850574712644
850	2334451	354.35377938079	1
850	2347566	356.213595451772	0.98863636363636
850	2347704	356.222140519412	1
850	2359241	357.732045109631	0.98876404494382
850	2359379	357.743150177271	1
850	2363227	358.491687041338	0.98888888888889
850	2363636	358.510232108978	1
850	2364573	358.639342171249	0.98901098901099
850	2364713	358.649167238889	1
850	2371032	359.640905561066	0.98913043478261
850	2371210	359.653610628706	1
850	2371875	359.70751073359	0.98924731182796
850	2372035	359.71893580123	1
850	2377381	360.496096993653	0.98936170212766
850	2377519	360.506562061293	1
850	2401270	364.031946281049	0.98947368421053
850	2401516	364.043691348689	1
850	2404573	364.436320181039	0.98958333333333
850	2404786	364.448385248679	1
850	2409528	365.011854020114	0.98969072164948
850	2409666	365.024879087754	1
850	2424409	367.177070525658	0.98979591836735
850	2424612	367.189455593298	1
850	2468221	372.709655371564	0.98989898989899
850	2468359	372.720760439204	1
850	2473573	373.829860370391	0.99
850	2473714	373.840325438031	1
860	1048633	161.478159618153	76
860	1054680	162.127889522054	76
860	1101395	169.193794376582	76
860	1103996	169.610895987558	76
860	1112334	170.863764848135	76
860	1116628	171.235709719407	76
860	1129768	173.435062517279	76
860	1139781	174.751049555398	76
860	1144042	175.45926699459	76
860	1144752	175.623032567965	76
860	1148883	176.173075416355	76
860	1174543	180.240687388913	76
860	1190091	182.178000723442	76
860	1201766	183.713896428531	76
860	1206657	184.425855357188	76
860	1216060	186.077057540357	76
860	1224339	187.267799245763	76
860	1231948	188.773426914335	76
860	1258453	193.329664798335	76
860	1281633	196.80343245251	76
860	1296521	199.027904160434	76
860	1310130	201.056115930896	76
860	1311025	201.164614823903	76
860	1335271	204.665947298894	76
860	1337732	204.89427882264	76
860	1341213	205.403806033488	76
860	1350763	206.884888501622	76
860	1408520	214.899796644536	76
860	1411105	215.301155338732	76
860	1455588	221.853494016064	76
860	1474504	224.549814488652	76
860	1492181	226.932308663031	76
860	1526924	231.969196496955	76
860	1533013	232.807828131966	76
860	1539223	233.597676491969	76
860	1569846	237.874174357291	76
860	1583581	239.895896532335	76
860	1611888	243.821346288925	76
860	1613429	244.01877065789	76
860	1623559	245.451467938262	76
860	1636104	247.693251631912	76
860	1659834	251.441964146062	76
860	1662039	251.671317469774	76
860	1673806	253.431100889127	76
860	1680899	254.481903038663	76
860	1770130	269.600148120452	76
860	1778765	270.754985440514	76
860	1817894	276.574379733736	76
860	1829154	278.44775503158	76
860	1851374	282.12827070025	76
860	1861132	283.390067109345	76
860	1861574	283.417466262374	76
860	1895369	288.795628193362	76
860	1899878	289.578108365625	76
860	1909780	290.814899924128	76
860	1947690	297.222673553625	76
860	1962228	299.555684478864	76
860	1975989	301.166102605217	76
860	1987345	302.857016380383	76
860	1988612	303.053466377801	76
860	1993014	303.522594166799	76
860	2018710	307.693661814263	76
860	2030193	309.503365352225	76
860	2031965	309.721331918402	76
860	2054101	313.115664669668	76
860	2067104	315.189076945302	76
860	2075290	316.19756168013	76
860	2078975	316.877380223052	76
860	2082970	317.637993582175	76
860	2098893	320.088743678345	76
860	2122004	323.234244616507	76
860	2160799	329.06990617693	76
860	2169279	330.121869646806	76
860	2201703	334.658728891259	76
860	2212987	336.200954505199	76
860	2214558	336.335287161783	76
860	2272734	345.315715583263	76
860	2293878	348.627563414229	76
860	2326846	353.119922410688	76
860	2376457	360.349712270955	76
860	2407645	364.868210825599	76
860	2450306	370.603198038185	76
860	2455239	371.046880228339	76
860	2485265	375.586217269369	76
860	2498469	377.90051210103	76
860	2502265	378.465267232176	76
860	2503586	378.634055018874	76
860	2513198	380.117275633087	76
860	2563991	387.049379228491	76
860	2583344	389.802851255242	76
860	2587636	390.523455443656	76
860	2590773	391.022311894927	76
860	2598559	391.956088609313	76
860	2607777	393.148560143631	76
860	2614621	393.91266159096	76
860	2619320	394.466231120565	76
860	2623192	395.121130084599	76
860	2666500	402.049100100201	76
860	2682200	404.034726409463	76
860	2685253	404.506892517027	76
862	1048850	161.494768724044	76
862	1055335	162.148146627945	76
862	1101719	169.207203482473	76
862	1104210	169.626225093449	76
862	1112807	170.880373954026	76
862	1116952	171.251998825298	76
862	1130297	173.45327162317	76
862	1140256	174.772218661289	76
862	1144254	175.474276100481	76
862	1144966	175.639001673856	76
862	1149206	176.188724522246	76
862	1174772	180.256976494804	76
862	1190824	182.208849829333	76
862	1201980	183.729225534422	76
862	1206872	184.443744463079	76
862	1216273	186.092386646248	76
862	1224556	187.285688351654	76
862	1232165	188.788756020226	76
862	1258670	193.345633904226	76
862	1281886	196.820681558401	76
862	1296935	199.046113266325	76
862	1310397	201.069845036787	76
862	1311237	201.178663929794	76
862	1335510	204.681916404785	76
862	1338033	204.908647928531	76
862	1341523	205.418495139379	76
862	1350978	206.899577607513	76
862	1408810	214.916405750427	76
862	1411430	215.317124444623	76
862	1456388	221.887831121955	76
862	1474728	224.568983594543	76
862	1492623	226.955717768922	76
862	1527142	231.986445602846	76
862	1533229	232.823477237857	76
862	1539436	233.61172559786	76
862	1570813	237.907503463182	76
862	1583887	239.913145638226	76
862	1612115	243.840195394816	76
862	1613861	244.039619763781	76
862	1623865	245.467757044153	76
862	1636409	247.706660737803	76
862	1660326	251.466013251953	76
862	1662260	251.686326575665	76
862	1674205	253.452909995018	76
862	1681383	254.497552144554	76
862	1770344	269.616757226343	76
862	1778979	270.770634546405	76
862	1818312	276.589388839627	76
862	1829368	278.464364137471	76
862	1851588	282.146479806141	76
862	1861490	283.411876215236	76
862	1861790	283.435675368265	76
862	1895583	288.810957299253	76
862	1900092	289.595677471516	76
862	1910096	290.832469030019	76
862	1948141	297.245122659516	76
862	1962442	299.571973584755	76
862	1976457	301.188871711108	76
862	1987561	302.872025486274	76
862	1988825	303.069115483692	76
862	1993486	303.54408327269	76
862	2019037	307.709630920154	76
862	2030407	309.519974458116	76
862	2032181	309.736341024293	76
862	2054474	313.130673775559	76
862	2067434	315.212150584895	76
862	2075506	316.215450786021	76
862	2079188	316.892389328943	76
862	2083184	317.654922688066	76
862	2099314	320.105352784236	76
862	2122219	323.249893722398	76
862	2161213	329.089523282821	76
862	2169602	330.138158752697	76
862	2202405	334.67565799715	76
862	2213769	336.233772611096	76
862	2214866	336.350296267674	76
862	2273193	345.336244689154	76
862	2294274	348.64449252012	76
862	2327060	353.137491516579	76
862	2376671	360.366961376846	76
862	2408629	364.90174793149	76
862	2450728	370.622047144076	76
862	2455548	371.06412933423	76
862	2485479	375.60378637526	76
862	2498780	377.918401206921	76
862	2502994	378.492596338067	76
862	2503800	378.652264124765	76
862	2513514	380.132604738978	76
862	2564362	387.072148334382	76
862	2583634	389.821060361133	76
862	2588190	390.548320549547	76
862	2590987	391.040201000818	76
862	2598914	391.974297715204	76
862	2608277	393.164337249522	76
862	2614932	393.929270696851	76
862	2619794	394.491048226456	76
862	2623698	395.13933919049	76
862	2666803	402.064429206092	76
862	2682631	404.050375515354	76
862	2685738	404.520941622918	76
863	62	1	76
863	247	3.246336603067	76
863	273	3.770451086418	76
863	392	5.375555057935	76
863	470	7.061512608764	76
863	41494	13.375703691595	76
863	61007	16.143042084831	76
863	63240	16.538454298694	76
863	80314	19.507422137185	76
863	108590	22.896365559214	76
863	146109	28.578598475475	76
863	151762	29.453557386482	76
863	156030	30.25726149361	76
863	183862	34.73691250366	76
863	184210	34.821807101038	76
863	225144	40.536122364818	76
863	231259	41.235641471854	76
863	235650	41.90361024967	76
863	237957	42.220181903672	76
863	239409	42.366385103781	76
863	239429	42.369418616004	76
863	254815	44.05893100973	76
863	272444	47.011551334116	76
863	278154	47.755816821282	76
863	285121	49.183174915738	76
863	293996	50.437422430377	76
863	306842	52.239893103605	76
863	311505	53.1275120596	76
863	319601	54.398404550895	76
863	324605	55.067285569327	76
863	325955	55.351211018926	76
863	343404	58.481749624886	76
863	371777	62.570584807406	76
863	398363	66.225132878841	76
863	409720	68.036811958464	76
863	410368	68.099884087521	76
863	441030	72.711510453021	76
863	446672	73.643624307815	76
863	454294	74.497937561582	76
863	471396	77.230643042333	76
863	477271	78.37602543307	76
863	522880	84.77843336163	76
863	527035	85.355623644055	76
863	528156	85.501633298574	76
863	528570	85.529553116269	76
863	552602	88.901715471226	76
863	594219	94.905421388768	76
863	597191	95.29589364715	76
863	604939	96.456218670557	76
863	610130	97.273092652632	76
863	615516	98.163643743136	76
863	632081	101.067120194273	76
863	642316	102.343195312149	76
863	659416	104.907055364509	76
863	669661	106.589274457066	76
863	686336	109.366162324353	76
863	717764	113.282858321003	76
863	719703	113.4870169196	76
863	730219	114.837024024992	76
863	731166	114.939789055878	76
863	738936	116.049032313555	76
863	739832	116.111745669126	76
863	750208	117.965822354987	76
863	751969	118.214412559466	76
863	771445	121.536094174928	76
863	780343	122.665736613653	76
863	822284	128.882501551177	76
863	836358	130.898701896436	76
863	852744	133.06911380599	76
863	853250	133.222288245099	76
863	856718	133.632973040582	76
863	874445	135.984146106564	76
863	884298	137.748592763926	76
863	895000	138.938424063829	76
863	901654	139.792560533528	76
863	902027	139.810023597782	76
863	921949	142.909284358656	76
863	928208	143.752821687384	76
863	929155	143.845489727755	76
863	938663	145.207981927936	76
863	943567	145.977560433828	76
863	954391	147.892443181739	76
863	978346	151.004752190606	76
863	986306	152.117985909454	76
863	1008237	155.159564609755	76
863	1023512	158.177395213232	76
863	2696394	406.305179877524	76
863	2713474	408.890889338295	76
863	2716646	409.414633140422	76
863	2733599	411.589708476642	76
863	2768146	416.336166867884	76
863	2768448	416.384593711608	76
863	2768464	416.387336668685	76
863	2786741	418.884355299123	76
863	2787380	418.968289374053	76
863	2787680	419.000182764541	76
864	1048633	161.478159618153	-nan
864	1048850	161.494768724044	1
864	1054680	162.127889522054	0.5
864	1055335	162.148146627945	1
864	1101395	169.193794376582	0.66666666666667
864	1101719	169.207203482473	1
864	1103996	169.610895987558	0.75
864	1104210	169.626225093449	1
864	1112334	170.863764848135	0.8
864	1112807	170.880373954026	1
864	1116628	171.235709719407	0.83333333333333
864	1116952	171.251998825298	1
864	1129768	173.435062517279	0.85714285714286
864	1130297	173.45327162317	1
864	1139781	174.751049555398	0.875
864	1140256	174.772218661289	1
864	1144042	175.45926699459	0.88888888888889
864	1144254	175.474276100481	1
864	1144752	175.623032567965	0.9
864	1144966	175.639001673856	1
864	1148883	176.173075416355	0.90909090909091
864	1149206	176.188724522246	1
864	1174543	180.240687388913	0.91666666666667
864	1174772	180.256976494804	1
864	1190091	182.178000723442	0.92307692307692
864	1190824	182.208849829333	1
864	1201766	183.713896428531	0.92857142857143
864	1201980	183.729225534422	1
864	1206657	184.425855357188	0.93333333333333
864	1206872	184.443744463079	1
864	1216060	186.077057540357	0.9375
864	1216273	186.092386646248	1
864	1224339	187.267799245763	0.94117647058824
864	1224556	187.285688351654	1
864	1231948	188.773426914335	0.94444444444444
864	1232165	188.788756020226	1
864	1258453	193.329664798335	0.94736842105263
864	1258670	193.345633904226	1
864	1281633	196.80343245251	0.95
864	1281886	196.820681558401	1
864	1296521	199.027904160434	0.95238095238095
864	1296935	199.046113266325	1
864	1310130	201.056115930896	0.95454545454545
864	1310397	201.069845036787	1
864	1311025	201.164614823903	0.95652173913043
864	1311237	201.178663929794	1
864	1335271	204.665947298894	0.95833333333333
864	1335510	204.681916404785	1
864	1337732	204.89427882264	0.96
864	1338033	204.908647928531	1
864	1341213	205.403806033488	0.96153846153846
864	1341523	205.418495139379	1
864	1350763	206.884888501622	0.96296296296296
864	1350978	206.899577607513	1
864	1408520	214.899796644536	0.96428571428571
864	1408810	214.916405750427	1
864	1411105	215.301155338732	0.96551724137931
864	1411430	215.317124444623	1
864	1455588	221.853494016064	0.96666666666667
864	1456388	221.887831121955	1
864	1474504	224.549814488652	0.96774193548387
864	1474728	224.568983594543	1
864	1492181	226.932308663031	0.96875
864	1492623	226.955717768922	1
864	1526924	231.969196496955	0.96969696969697
864	1527142	231.986445602846	1
864	1533013	232.807828131966	0.97058823529412
864	1533229	232.823477237857	1
864	1539223	233.597676491969	0.97142857142857
864	1539436	233.61172559786	1
864	1569846	237.874174357291	0.97222222222222
864	1570813	237.907503463182	1
864	1583581	239.895896532335	0.97297297297297
864	1583887	239.913145638226	1
864	1611888	243.821346288925	0.97368421052632
864	1612115	243.840195394816	1
864	1613429	244.01877065789	0.97435897435897
864	1613861	244.039619763781	1
864	1623559	245.451467938262	0.975
864	1623865	245.467757044153	1
864	1636104	247.693251631912	0.97560975609756
864	1636409	247.706660737803	1
864	1659834	251.441964146062	0.97619047619048
864	1660326	251.466013251953	1
864	1662039	251.671317469774	0.97674418604651
864	1662260	251.686326575665	1
864	1673806	253.431100889127	0.97727272727273
864	1674205	253.452909995018	1
864	1680899	254.481903038663	0.97777777777778
864	1681383	254.497552144554	1
864	1770130	269.600148120452	0.97826086956522
864	1770344	269.616757226343	1
864	1778765	270.754985440514	0.97872340425532
864	1778979	270.770634546405	1
864	1817894	276.574379733736	0.97916666666667
864	1818312	276.589388839627	1
864	1829154	278.44775503158	0.97959183673469
864	1829368	278.464364137471	1
864	1851374	282.12827070025	0.98
864	1851588	282.146479806141	1
864	1861132	283.390067109345	0.98039215686275
864	1861490	283.411876215236	1
864	1861574	283.417466262374	0.98076923076923
864	1861790	283.435675368265	1
864	1895369	288.795628193362	0.9811320754717
864	1895583	288.810957299253	1
864	1899878	289.578108365625	0.98148148148148
864	1900092	289.595677471516	1
864	1909780	290.814899924128	0.98181818181818
864	1910096	290.832469030019	1
864	1947690	297.222673553625	0.98214285714286
864	1948141	297.245122659516	1
864	1962228	299.555684478864	0.98245614035088
864	1962442	299.571973584755	1
864	1975989	301.166102605217	0.98275862068966
864	1976457	301.188871711108	1
864	1987345	302.857016380383	0.98305084745763
864	1987561	302.872025486274	1
864	1988612	303.053466377801	0.98333333333333
864	1988825	303.069115483692	1
864	1993014	303.522594166799	0.98360655737705
864	1993486	303.54408327269	1
864	2018710	307.693661814263	0.98387096774194
864	2019037	307.709630920154	1
864	2030193	309.503365352225	0.98412698412698
864	2030407	309.519974458116	1
864	2031965	309.721331918402	0.984375
864	2032181	309.736341024293	1
864	2054101	313.115664669668	0.98461538461538
864	2054474	313.130673775559	1
864	2067104	315.189076945302	0.98484848484848
864	2067434	315.212150584895	1
864	2075290	316.19756168013	0.98507462686567
864	2075506	316.215450786021	1
864	2078975	316.877380223052	0.98529411764706
864	2079188	316.892389328943	1
864	2082970	317.637993582175	0.98550724637681
864	2083184	317.654922688066	1
864	2098893	320.088743678345	0.98571428571429
864	2099314	320.105352784236	1
864	2122004	323.234244616507	0.98591549295775
864	2122219	323.249893722398	1
864	2160799	329.06990617693	0.98611111111111
864	2161213	329.089523282821	1
864	2169279	330.121869646806	0.98630136986301
864	2169602	330.138158752697	1
864	2201703	334.658728891259	0.98648648648649
864	2202405	334.67565799715	1
864	2212987	336.200954505199	0.98666666666667
864	2213769	336.233772611096	1
864	2214558	336.335287161783	0.98684210526316
864	2214866	336.350296267674	1
864	2272734	345.315715583263	0.98701298701299
864	2273193	345.336244689154	1
864	2293878	348.627563414229	0.98717948717949
864	2294274	348.64449252012	1
864	2326846	353.119922410688	0.9873417721519
864	2327060	353.137491516579	1
864	2376457	360.349712270955	0.9875
864	2376671	360.366961376846	1
864	2407645	364.868210825599	0.98765432098765
864	2408629	364.90174793149	1
864	2450306	370.603198038185	0.98780487804878
864	2450728	370.622047144076	1
864	2455239	371.046880228339	0.98795180722892
864	2455548	371.06412933423	1
864	2485265	375.586217269369	0.98809523809524
864	2485479	375.60378637526	1
864	2498469	377.90051210103	0.98823529411765
864	2498780	377.918401206921	1
864	2502265	378.465267232176	0.98837209302326
864	2502994	378.492596338067	1
864	2503586	378.634055018874	0.98850574712644
864	2503800	378.652264124765	1
864	2513198	380.117275633087	0.98863636363636
864	2513514	380.132604738978	1
864	2563991	387.049379228491	0.98876404494382
864	2564362	387.072148334382	1
864	2583344	389.802851255242	0.98888888888889
864	2583634	389.821060361133	1
864	2587636	390.523455443656	0.98901098901099
864	2588190	390.548320549547	1
864	2590773	391.022311894927	0.98913043478261
864	2590987	391.040201000818	1
864	2598559	391.956088609313	0.98924731182796
864	2598914	391.974297715204	1
864	2607777	393.148560143631	0.98936170212766
864	2608277	393.164337249522	1
864	2614621	393.91266159096	0.98947368421053
864	2614932	393.929270696851	1
864	2619320	394.466231120565	0.98958333333333
864	2619794	394.491048226456	1
864	2623192	395.121130084599	0.98969072164948
864	2623698	395.13933919049	1
864	2666500	402.049100100201	0.98979591836735
864	2666803	402.064429206092	1
864	2682200	404.034726409463	0.98989898989899
864	2682631	404.050375515354	1
864	2685253	404.506892517027	0.99
864	2685738	404.520941622918	1
