file 2316324 1473762495                                         
version 2
run DSME-0-20160913-10:24:21-14498
attr beaconInterval 10s
attr configname DSME
attr datetime 20160913-10:24:21
attr experiment DSME
attr inifile simulations/omnetpp.ini
attr iterationvars "$packetLength=76B, $sendInt=2, $beaconInterval=10s, $0=10s/2, $1=3 * 10s"
attr iterationvars2 "$packetLength=76B, $sendInt=2, $beaconInterval=10s, $0=10s/2, $1=3 * 10s, $repetition=0"
attr measurement "$packetLength=76B, $sendInt=2, $beaconInterval=10s, $0=10s/2, $1=3 * 10s"
attr network multi_gateway.Net802154MultiGateway
attr packetLength 76B
attr processid 14498
attr repetition 0
attr replication #0
attr resultdir ../results
attr runnumber 0
attr seedset 0
attr sendInt 2
param **.configurator.addStaticRoutes false
param **.dumpRoutes false
param **.dumpTopology false
param **.host[*].**.gpsr.beaconInterval "${beaconInterval = 10s}"
param **.host[*].**.gpsr.maxJitter ${$beaconInterval/2}
param **.host[*].**.gpsr.neighborValidityInterval "${3 * $beaconInterval}"
param **.host[*].**.gpsr.positionByteLength "2 B"
param **.host[*].**.gpsr.routingStrategy "\"StraightestPath\""
param **.host[*].**.trafficgen.continueSendingDummyPackets true
param **.host[*].**.trafficgen.coolDownDuration 15s
param **.host[*].**.trafficgen.destAddresses "\"host[0].wrappedHost(modulepath)\""
param **.host[*].**.trafficgen.packetLength "${packetLength = 76B}"
param **.host[*].**.trafficgen.sendInterval "exponential(${sendInt=1.0..2.5 step 0.25}s)"
param **.host[*].**.trafficgen.warmUpDuration 160s
param **.host[*].**.wlan[*].mac.macDSMEGTSExpirationTime 255
param **.host[*].**.wlan[*].macType "\"DSME\""
param **.host[*].**.wlan[*].radio.receiver.minInterferencePower "-100 dBm"
param **.host[*].hostType "\"SimpleHost\""
param **.host[*].mobility.distance 80m
param **.host[*].mobilityType "\"StaticConcentricWrappingMobility\""
param **.host[0].**.trafficgen.numPackets 0
param **.host[0].**.wlan[*].mac.isPANCoordinator true
param **.host[1..].**.trafficgen.numPackets 100
param **.numHosts 62
param **.radioMedium.rangeFilter "\"interferenceRange\""
param **.routingTable.addressType "\"modulepath\""
param **.routingTableType "\"GenericRoutingTable\""

vector 9  Net802154MultiGateway.host[0].wrappedHost.trafficgen  sentDummyPk:vector(packetBytes)  ETV
attr interpolationmode  none
attr source  sentDummyPk
attr title  "dummy packets sent, vector(packetBytes)"
vector 25  Net802154MultiGateway.host[1].wrappedHost.trafficgen  sentDummyPk:vector(packetBytes)  ETV
attr interpolationmode  none
attr source  sentDummyPk
attr title  "dummy packets sent, vector(packetBytes)"
vector 41  Net802154MultiGateway.host[2].wrappedHost.trafficgen  sentDummyPk:vector(packetBytes)  ETV
attr interpolationmode  none
attr source  sentDummyPk
attr title  "dummy packets sent, vector(packetBytes)"
vector 57  Net802154MultiGateway.host[3].wrappedHost.trafficgen  sentDummyPk:vector(packetBytes)  ETV
attr interpolationmode  none
attr source  sentDummyPk
attr title  "dummy packets sent, vector(packetBytes)"
vector 73  Net802154MultiGateway.host[4].wrappedHost.trafficgen  sentDummyPk:vector(packetBytes)  ETV
attr interpolationmode  none
attr source  sentDummyPk
attr title  "dummy packets sent, vector(packetBytes)"
vector 89  Net802154MultiGateway.host[5].wrappedHost.trafficgen  sentDummyPk:vector(packetBytes)  ETV
attr interpolationmode  none
attr source  sentDummyPk
attr title  "dummy packets sent, vector(packetBytes)"
vector 105  Net802154MultiGateway.host[6].wrappedHost.trafficgen  sentDummyPk:vector(packetBytes)  ETV
attr interpolationmode  none
attr source  sentDummyPk
attr title  "dummy packets sent, vector(packetBytes)"
vector 121  Net802154MultiGateway.host[7].wrappedHost.trafficgen  sentDummyPk:vector(packetBytes)  ETV
attr interpolationmode  none
attr source  sentDummyPk
attr title  "dummy packets sent, vector(packetBytes)"
vector 137  Net802154MultiGateway.host[8].wrappedHost.trafficgen  sentDummyPk:vector(packetBytes)  ETV
attr interpolationmode  none
attr source  sentDummyPk
attr title  "dummy packets sent, vector(packetBytes)"
vector 153  Net802154MultiGateway.host[9].wrappedHost.trafficgen  sentDummyPk:vector(packetBytes)  ETV
attr interpolationmode  none
attr source  sentDummyPk
attr title  "dummy packets sent, vector(packetBytes)"
vector 169  Net802154MultiGateway.host[10].wrappedHost.trafficgen  sentDummyPk:vector(packetBytes)  ETV
attr interpolationmode  none
attr source  sentDummyPk
attr title  "dummy packets sent, vector(packetBytes)"
vector 185  Net802154MultiGateway.host[11].wrappedHost.trafficgen  sentDummyPk:vector(packetBytes)  ETV
attr interpolationmode  none
attr source  sentDummyPk
attr title  "dummy packets sent, vector(packetBytes)"
vector 201  Net802154MultiGateway.host[12].wrappedHost.trafficgen  sentDummyPk:vector(packetBytes)  ETV
attr interpolationmode  none
attr source  sentDummyPk
attr title  "dummy packets sent, vector(packetBytes)"
vector 217  Net802154MultiGateway.host[13].wrappedHost.trafficgen  sentDummyPk:vector(packetBytes)  ETV
attr interpolationmode  none
attr source  sentDummyPk
attr title  "dummy packets sent, vector(packetBytes)"
vector 233  Net802154MultiGateway.host[14].wrappedHost.trafficgen  sentDummyPk:vector(packetBytes)  ETV
attr interpolationmode  none
attr source  sentDummyPk
attr title  "dummy packets sent, vector(packetBytes)"
vector 249  Net802154MultiGateway.host[15].wrappedHost.trafficgen  sentDummyPk:vector(packetBytes)  ETV
attr interpolationmode  none
attr source  sentDummyPk
attr title  "dummy packets sent, vector(packetBytes)"
vector 265  Net802154MultiGateway.host[16].wrappedHost.trafficgen  sentDummyPk:vector(packetBytes)  ETV
attr interpolationmode  none
attr source  sentDummyPk
attr title  "dummy packets sent, vector(packetBytes)"
vector 281  Net802154MultiGateway.host[17].wrappedHost.trafficgen  sentDummyPk:vector(packetBytes)  ETV
attr interpolationmode  none
attr source  sentDummyPk
attr title  "dummy packets sent, vector(packetBytes)"
vector 297  Net802154MultiGateway.host[18].wrappedHost.trafficgen  sentDummyPk:vector(packetBytes)  ETV
attr interpolationmode  none
attr source  sentDummyPk
attr title  "dummy packets sent, vector(packetBytes)"
vector 313  Net802154MultiGateway.host[19].wrappedHost.trafficgen  sentDummyPk:vector(packetBytes)  ETV
attr interpolationmode  none
attr source  sentDummyPk
attr title  "dummy packets sent, vector(packetBytes)"
vector 329  Net802154MultiGateway.host[20].wrappedHost.trafficgen  sentDummyPk:vector(packetBytes)  ETV
attr interpolationmode  none
attr source  sentDummyPk
attr title  "dummy packets sent, vector(packetBytes)"
vector 345  Net802154MultiGateway.host[21].wrappedHost.trafficgen  sentDummyPk:vector(packetBytes)  ETV
attr interpolationmode  none
attr source  sentDummyPk
attr title  "dummy packets sent, vector(packetBytes)"
vector 361  Net802154MultiGateway.host[22].wrappedHost.trafficgen  sentDummyPk:vector(packetBytes)  ETV
attr interpolationmode  none
attr source  sentDummyPk
attr title  "dummy packets sent, vector(packetBytes)"
vector 377  Net802154MultiGateway.host[23].wrappedHost.trafficgen  sentDummyPk:vector(packetBytes)  ETV
attr interpolationmode  none
attr source  sentDummyPk
attr title  "dummy packets sent, vector(packetBytes)"
vector 393  Net802154MultiGateway.host[24].wrappedHost.trafficgen  sentDummyPk:vector(packetBytes)  ETV
attr interpolationmode  none
attr source  sentDummyPk
attr title  "dummy packets sent, vector(packetBytes)"
vector 409  Net802154MultiGateway.host[25].wrappedHost.trafficgen  sentDummyPk:vector(packetBytes)  ETV
attr interpolationmode  none
attr source  sentDummyPk
attr title  "dummy packets sent, vector(packetBytes)"
vector 425  Net802154MultiGateway.host[26].wrappedHost.trafficgen  sentDummyPk:vector(packetBytes)  ETV
attr interpolationmode  none
attr source  sentDummyPk
attr title  "dummy packets sent, vector(packetBytes)"
vector 441  Net802154MultiGateway.host[27].wrappedHost.trafficgen  sentDummyPk:vector(packetBytes)  ETV
attr interpolationmode  none
attr source  sentDummyPk
attr title  "dummy packets sent, vector(packetBytes)"
vector 457  Net802154MultiGateway.host[28].wrappedHost.trafficgen  sentDummyPk:vector(packetBytes)  ETV
attr interpolationmode  none
attr source  sentDummyPk
attr title  "dummy packets sent, vector(packetBytes)"
vector 473  Net802154MultiGateway.host[29].wrappedHost.trafficgen  sentDummyPk:vector(packetBytes)  ETV
attr interpolationmode  none
attr source  sentDummyPk
attr title  "dummy packets sent, vector(packetBytes)"
vector 489  Net802154MultiGateway.host[30].wrappedHost.trafficgen  sentDummyPk:vector(packetBytes)  ETV
attr interpolationmode  none
attr source  sentDummyPk
attr title  "dummy packets sent, vector(packetBytes)"
vector 505  Net802154MultiGateway.host[31].wrappedHost.trafficgen  sentDummyPk:vector(packetBytes)  ETV
attr interpolationmode  none
attr source  sentDummyPk
attr title  "dummy packets sent, vector(packetBytes)"
vector 521  Net802154MultiGateway.host[32].wrappedHost.trafficgen  sentDummyPk:vector(packetBytes)  ETV
attr interpolationmode  none
attr source  sentDummyPk
attr title  "dummy packets sent, vector(packetBytes)"
vector 537  Net802154MultiGateway.host[33].wrappedHost.trafficgen  sentDummyPk:vector(packetBytes)  ETV
attr interpolationmode  none
attr source  sentDummyPk
attr title  "dummy packets sent, vector(packetBytes)"
vector 553  Net802154MultiGateway.host[34].wrappedHost.trafficgen  sentDummyPk:vector(packetBytes)  ETV
attr interpolationmode  none
attr source  sentDummyPk
attr title  "dummy packets sent, vector(packetBytes)"
vector 569  Net802154MultiGateway.host[35].wrappedHost.trafficgen  sentDummyPk:vector(packetBytes)  ETV
attr interpolationmode  none
attr source  sentDummyPk
attr title  "dummy packets sent, vector(packetBytes)"
vector 585  Net802154MultiGateway.host[36].wrappedHost.trafficgen  sentDummyPk:vector(packetBytes)  ETV
attr interpolationmode  none
attr source  sentDummyPk
attr title  "dummy packets sent, vector(packetBytes)"
vector 601  Net802154MultiGateway.host[37].wrappedHost.trafficgen  sentDummyPk:vector(packetBytes)  ETV
attr interpolationmode  none
attr source  sentDummyPk
attr title  "dummy packets sent, vector(packetBytes)"
vector 617  Net802154MultiGateway.host[38].wrappedHost.trafficgen  sentDummyPk:vector(packetBytes)  ETV
attr interpolationmode  none
attr source  sentDummyPk
attr title  "dummy packets sent, vector(packetBytes)"
vector 633  Net802154MultiGateway.host[39].wrappedHost.trafficgen  sentDummyPk:vector(packetBytes)  ETV
attr interpolationmode  none
attr source  sentDummyPk
attr title  "dummy packets sent, vector(packetBytes)"
vector 649  Net802154MultiGateway.host[40].wrappedHost.trafficgen  sentDummyPk:vector(packetBytes)  ETV
attr interpolationmode  none
attr source  sentDummyPk
attr title  "dummy packets sent, vector(packetBytes)"
vector 665  Net802154MultiGateway.host[41].wrappedHost.trafficgen  sentDummyPk:vector(packetBytes)  ETV
attr interpolationmode  none
attr source  sentDummyPk
attr title  "dummy packets sent, vector(packetBytes)"
vector 681  Net802154MultiGateway.host[42].wrappedHost.trafficgen  sentDummyPk:vector(packetBytes)  ETV
attr interpolationmode  none
attr source  sentDummyPk
attr title  "dummy packets sent, vector(packetBytes)"
vector 697  Net802154MultiGateway.host[43].wrappedHost.trafficgen  sentDummyPk:vector(packetBytes)  ETV
attr interpolationmode  none
attr source  sentDummyPk
attr title  "dummy packets sent, vector(packetBytes)"
vector 713  Net802154MultiGateway.host[44].wrappedHost.trafficgen  sentDummyPk:vector(packetBytes)  ETV
attr interpolationmode  none
attr source  sentDummyPk
attr title  "dummy packets sent, vector(packetBytes)"
vector 729  Net802154MultiGateway.host[45].wrappedHost.trafficgen  sentDummyPk:vector(packetBytes)  ETV
attr interpolationmode  none
attr source  sentDummyPk
attr title  "dummy packets sent, vector(packetBytes)"
vector 745  Net802154MultiGateway.host[46].wrappedHost.trafficgen  sentDummyPk:vector(packetBytes)  ETV
attr interpolationmode  none
attr source  sentDummyPk
attr title  "dummy packets sent, vector(packetBytes)"
vector 761  Net802154MultiGateway.host[47].wrappedHost.trafficgen  sentDummyPk:vector(packetBytes)  ETV
attr interpolationmode  none
attr source  sentDummyPk
attr title  "dummy packets sent, vector(packetBytes)"
vector 777  Net802154MultiGateway.host[48].wrappedHost.trafficgen  sentDummyPk:vector(packetBytes)  ETV
attr interpolationmode  none
attr source  sentDummyPk
attr title  "dummy packets sent, vector(packetBytes)"
vector 793  Net802154MultiGateway.host[49].wrappedHost.trafficgen  sentDummyPk:vector(packetBytes)  ETV
attr interpolationmode  none
attr source  sentDummyPk
attr title  "dummy packets sent, vector(packetBytes)"
vector 809  Net802154MultiGateway.host[50].wrappedHost.trafficgen  sentDummyPk:vector(packetBytes)  ETV
attr interpolationmode  none
attr source  sentDummyPk
attr title  "dummy packets sent, vector(packetBytes)"
vector 825  Net802154MultiGateway.host[51].wrappedHost.trafficgen  sentDummyPk:vector(packetBytes)  ETV
attr interpolationmode  none
attr source  sentDummyPk
attr title  "dummy packets sent, vector(packetBytes)"
vector 841  Net802154MultiGateway.host[52].wrappedHost.trafficgen  sentDummyPk:vector(packetBytes)  ETV
attr interpolationmode  none
attr source  sentDummyPk
attr title  "dummy packets sent, vector(packetBytes)"
vector 857  Net802154MultiGateway.host[53].wrappedHost.trafficgen  sentDummyPk:vector(packetBytes)  ETV
attr interpolationmode  none
attr source  sentDummyPk
attr title  "dummy packets sent, vector(packetBytes)"
vector 873  Net802154MultiGateway.host[54].wrappedHost.trafficgen  sentDummyPk:vector(packetBytes)  ETV
attr interpolationmode  none
attr source  sentDummyPk
attr title  "dummy packets sent, vector(packetBytes)"
vector 889  Net802154MultiGateway.host[55].wrappedHost.trafficgen  sentDummyPk:vector(packetBytes)  ETV
attr interpolationmode  none
attr source  sentDummyPk
attr title  "dummy packets sent, vector(packetBytes)"
vector 905  Net802154MultiGateway.host[56].wrappedHost.trafficgen  sentDummyPk:vector(packetBytes)  ETV
attr interpolationmode  none
attr source  sentDummyPk
attr title  "dummy packets sent, vector(packetBytes)"
vector 921  Net802154MultiGateway.host[57].wrappedHost.trafficgen  sentDummyPk:vector(packetBytes)  ETV
attr interpolationmode  none
attr source  sentDummyPk
attr title  "dummy packets sent, vector(packetBytes)"
vector 937  Net802154MultiGateway.host[58].wrappedHost.trafficgen  sentDummyPk:vector(packetBytes)  ETV
attr interpolationmode  none
attr source  sentDummyPk
attr title  "dummy packets sent, vector(packetBytes)"
vector 953  Net802154MultiGateway.host[59].wrappedHost.trafficgen  sentDummyPk:vector(packetBytes)  ETV
attr interpolationmode  none
attr source  sentDummyPk
attr title  "dummy packets sent, vector(packetBytes)"
vector 969  Net802154MultiGateway.host[60].wrappedHost.trafficgen  sentDummyPk:vector(packetBytes)  ETV
attr interpolationmode  none
attr source  sentDummyPk
attr title  "dummy packets sent, vector(packetBytes)"
vector 985  Net802154MultiGateway.host[61].wrappedHost.trafficgen  sentDummyPk:vector(packetBytes)  ETV
attr interpolationmode  none
attr source  sentDummyPk
attr title  "dummy packets sent, vector(packetBytes)"
vector 15  Net802154MultiGateway.host[0].wrappedHost.wlan[0].mac  broadDataSentDown:vector(packetBytes)  ETV
attr interpolationmode  none
attr source  broadcastDataSentDown
attr title  "broadcast packet sent down of type DATA, vector(packetBytes)"
vector 159  Net802154MultiGateway.host[9].wrappedHost.wlan[0].mac  broadDataSentDown:vector(packetBytes)  ETV
attr interpolationmode  none
attr source  broadcastDataSentDown
attr title  "broadcast packet sent down of type DATA, vector(packetBytes)"
vector 143  Net802154MultiGateway.host[8].wrappedHost.wlan[0].mac  broadDataSentDown:vector(packetBytes)  ETV
attr interpolationmode  none
attr source  broadcastDataSentDown
attr title  "broadcast packet sent down of type DATA, vector(packetBytes)"
vector 142  Net802154MultiGateway.host[8].wrappedHost.wlan[0].mac  unicastDataSentDown:vector(packetBytes)  ETV
attr interpolationmode  none
attr source  unicastDataSentDown
attr title  "unicast packet sent down of type DATA, vector(packetBytes)"
vector 303  Net802154MultiGateway.host[18].wrappedHost.wlan[0].mac  broadDataSentDown:vector(packetBytes)  ETV
attr interpolationmode  none
attr source  broadcastDataSentDown
attr title  "broadcast packet sent down of type DATA, vector(packetBytes)"
vector 46  Net802154MultiGateway.host[2].wrappedHost.wlan[0].mac  unicastDataSentDown:vector(packetBytes)  ETV
attr interpolationmode  none
attr source  unicastDataSentDown
attr title  "unicast packet sent down of type DATA, vector(packetBytes)"
vector 302  Net802154MultiGateway.host[18].wrappedHost.wlan[0].mac  unicastDataSentDown:vector(packetBytes)  ETV
attr interpolationmode  none
attr source  unicastDataSentDown
attr title  "unicast packet sent down of type DATA, vector(packetBytes)"
vector 271  Net802154MultiGateway.host[16].wrappedHost.wlan[0].mac  broadDataSentDown:vector(packetBytes)  ETV
attr interpolationmode  none
attr source  broadcastDataSentDown
attr title  "broadcast packet sent down of type DATA, vector(packetBytes)"
vector 63  Net802154MultiGateway.host[3].wrappedHost.wlan[0].mac  broadDataSentDown:vector(packetBytes)  ETV
attr interpolationmode  none
attr source  broadcastDataSentDown
attr title  "broadcast packet sent down of type DATA, vector(packetBytes)"
vector 270  Net802154MultiGateway.host[16].wrappedHost.wlan[0].mac  unicastDataSentDown:vector(packetBytes)  ETV
attr interpolationmode  none
attr source  unicastDataSentDown
attr title  "unicast packet sent down of type DATA, vector(packetBytes)"
vector 94  Net802154MultiGateway.host[5].wrappedHost.wlan[0].mac  unicastDataSentDown:vector(packetBytes)  ETV
attr interpolationmode  none
attr source  unicastDataSentDown
attr title  "unicast packet sent down of type DATA, vector(packetBytes)"
vector 223  Net802154MultiGateway.host[13].wrappedHost.wlan[0].mac  broadDataSentDown:vector(packetBytes)  ETV
attr interpolationmode  none
attr source  broadcastDataSentDown
attr title  "broadcast packet sent down of type DATA, vector(packetBytes)"
vector 239  Net802154MultiGateway.host[14].wrappedHost.wlan[0].mac  broadDataSentDown:vector(packetBytes)  ETV
attr interpolationmode  none
attr source  broadcastDataSentDown
attr title  "broadcast packet sent down of type DATA, vector(packetBytes)"
vector 62  Net802154MultiGateway.host[3].wrappedHost.wlan[0].mac  unicastDataSentDown:vector(packetBytes)  ETV
attr interpolationmode  none
attr source  unicastDataSentDown
attr title  "unicast packet sent down of type DATA, vector(packetBytes)"
vector 222  Net802154MultiGateway.host[13].wrappedHost.wlan[0].mac  unicastDataSentDown:vector(packetBytes)  ETV
attr interpolationmode  none
attr source  unicastDataSentDown
attr title  "unicast packet sent down of type DATA, vector(packetBytes)"
vector 110  Net802154MultiGateway.host[6].wrappedHost.wlan[0].mac  unicastDataSentDown:vector(packetBytes)  ETV
attr interpolationmode  none
attr source  unicastDataSentDown
attr title  "unicast packet sent down of type DATA, vector(packetBytes)"
vector 174  Net802154MultiGateway.host[10].wrappedHost.wlan[0].mac  unicastDataSentDown:vector(packetBytes)  ETV
attr interpolationmode  none
attr source  unicastDataSentDown
attr title  "unicast packet sent down of type DATA, vector(packetBytes)"
vector 238  Net802154MultiGateway.host[14].wrappedHost.wlan[0].mac  unicastDataSentDown:vector(packetBytes)  ETV
attr interpolationmode  none
attr source  unicastDataSentDown
attr title  "unicast packet sent down of type DATA, vector(packetBytes)"
vector 286  Net802154MultiGateway.host[17].wrappedHost.wlan[0].mac  unicastDataSentDown:vector(packetBytes)  ETV
attr interpolationmode  none
attr source  unicastDataSentDown
attr title  "unicast packet sent down of type DATA, vector(packetBytes)"
vector 334  Net802154MultiGateway.host[20].wrappedHost.wlan[0].mac  unicastDataSentDown:vector(packetBytes)  ETV
attr interpolationmode  none
attr source  unicastDataSentDown
attr title  "unicast packet sent down of type DATA, vector(packetBytes)"
vector 414  Net802154MultiGateway.host[25].wrappedHost.wlan[0].mac  unicastDataSentDown:vector(packetBytes)  ETV
attr interpolationmode  none
attr source  unicastDataSentDown
attr title  "unicast packet sent down of type DATA, vector(packetBytes)"
vector 558  Net802154MultiGateway.host[34].wrappedHost.wlan[0].mac  unicastDataSentDown:vector(packetBytes)  ETV
attr interpolationmode  none
attr source  unicastDataSentDown
attr title  "unicast packet sent down of type DATA, vector(packetBytes)"
vector 574  Net802154MultiGateway.host[35].wrappedHost.wlan[0].mac  unicastDataSentDown:vector(packetBytes)  ETV
attr interpolationmode  none
attr source  unicastDataSentDown
attr title  "unicast packet sent down of type DATA, vector(packetBytes)"
vector 782  Net802154MultiGateway.host[48].wrappedHost.wlan[0].mac  unicastDataSentDown:vector(packetBytes)  ETV
attr interpolationmode  none
attr source  unicastDataSentDown
attr title  "unicast packet sent down of type DATA, vector(packetBytes)"
vector 686  Net802154MultiGateway.host[42].wrappedHost.wlan[0].mac  unicastDataSentDown:vector(packetBytes)  ETV
attr interpolationmode  none
attr source  unicastDataSentDown
attr title  "unicast packet sent down of type DATA, vector(packetBytes)"
vector 366  Net802154MultiGateway.host[22].wrappedHost.wlan[0].mac  unicastDataSentDown:vector(packetBytes)  ETV
attr interpolationmode  none
attr source  unicastDataSentDown
attr title  "unicast packet sent down of type DATA, vector(packetBytes)"
vector 158  Net802154MultiGateway.host[9].wrappedHost.wlan[0].mac  unicastDataSentDown:vector(packetBytes)  ETV
attr interpolationmode  none
attr source  unicastDataSentDown
attr title  "unicast packet sent down of type DATA, vector(packetBytes)"
vector 478  Net802154MultiGateway.host[29].wrappedHost.wlan[0].mac  unicastDataSentDown:vector(packetBytes)  ETV
attr interpolationmode  none
attr source  unicastDataSentDown
attr title  "unicast packet sent down of type DATA, vector(packetBytes)"
vector 798  Net802154MultiGateway.host[49].wrappedHost.wlan[0].mac  unicastDataSentDown:vector(packetBytes)  ETV
attr interpolationmode  none
attr source  unicastDataSentDown
attr title  "unicast packet sent down of type DATA, vector(packetBytes)"
vector 206  Net802154MultiGateway.host[12].wrappedHost.wlan[0].mac  unicastDataSentDown:vector(packetBytes)  ETV
attr interpolationmode  none
attr source  unicastDataSentDown
attr title  "unicast packet sent down of type DATA, vector(packetBytes)"
vector 910  Net802154MultiGateway.host[56].wrappedHost.wlan[0].mac  unicastDataSentDown:vector(packetBytes)  ETV
attr interpolationmode  none
attr source  unicastDataSentDown
attr title  "unicast packet sent down of type DATA, vector(packetBytes)"
vector 958  Net802154MultiGateway.host[59].wrappedHost.wlan[0].mac  unicastDataSentDown:vector(packetBytes)  ETV
attr interpolationmode  none
attr source  unicastDataSentDown
attr title  "unicast packet sent down of type DATA, vector(packetBytes)"
vector 126  Net802154MultiGateway.host[7].wrappedHost.wlan[0].mac  unicastDataSentDown:vector(packetBytes)  ETV
attr interpolationmode  none
attr source  unicastDataSentDown
attr title  "unicast packet sent down of type DATA, vector(packetBytes)"
vector 30  Net802154MultiGateway.host[1].wrappedHost.wlan[0].mac  unicastDataSentDown:vector(packetBytes)  ETV
attr interpolationmode  none
attr source  unicastDataSentDown
attr title  "unicast packet sent down of type DATA, vector(packetBytes)"
vector 926  Net802154MultiGateway.host[57].wrappedHost.wlan[0].mac  unicastDataSentDown:vector(packetBytes)  ETV
attr interpolationmode  none
attr source  unicastDataSentDown
attr title  "unicast packet sent down of type DATA, vector(packetBytes)"
vector 398  Net802154MultiGateway.host[24].wrappedHost.wlan[0].mac  unicastDataSentDown:vector(packetBytes)  ETV
attr interpolationmode  none
attr source  unicastDataSentDown
attr title  "unicast packet sent down of type DATA, vector(packetBytes)"
vector 830  Net802154MultiGateway.host[51].wrappedHost.wlan[0].mac  unicastDataSentDown:vector(packetBytes)  ETV
attr interpolationmode  none
attr source  unicastDataSentDown
attr title  "unicast packet sent down of type DATA, vector(packetBytes)"
vector 654  Net802154MultiGateway.host[40].wrappedHost.wlan[0].mac  unicastDataSentDown:vector(packetBytes)  ETV
attr interpolationmode  none
attr source  unicastDataSentDown
attr title  "unicast packet sent down of type DATA, vector(packetBytes)"
vector 494  Net802154MultiGateway.host[30].wrappedHost.wlan[0].mac  unicastDataSentDown:vector(packetBytes)  ETV
attr interpolationmode  none
attr source  unicastDataSentDown
attr title  "unicast packet sent down of type DATA, vector(packetBytes)"
vector 542  Net802154MultiGateway.host[33].wrappedHost.wlan[0].mac  unicastDataSentDown:vector(packetBytes)  ETV
attr interpolationmode  none
attr source  unicastDataSentDown
attr title  "unicast packet sent down of type DATA, vector(packetBytes)"
vector 894  Net802154MultiGateway.host[55].wrappedHost.wlan[0].mac  unicastDataSentDown:vector(packetBytes)  ETV
attr interpolationmode  none
attr source  unicastDataSentDown
attr title  "unicast packet sent down of type DATA, vector(packetBytes)"
vector 462  Net802154MultiGateway.host[28].wrappedHost.wlan[0].mac  unicastDataSentDown:vector(packetBytes)  ETV
attr interpolationmode  none
attr source  unicastDataSentDown
attr title  "unicast packet sent down of type DATA, vector(packetBytes)"
vector 815  Net802154MultiGateway.host[50].wrappedHost.wlan[0].mac  broadDataSentDown:vector(packetBytes)  ETV
attr interpolationmode  none
attr source  broadcastDataSentDown
attr title  "broadcast packet sent down of type DATA, vector(packetBytes)"
vector 526  Net802154MultiGateway.host[32].wrappedHost.wlan[0].mac  unicastDataSentDown:vector(packetBytes)  ETV
attr interpolationmode  none
attr source  unicastDataSentDown
attr title  "unicast packet sent down of type DATA, vector(packetBytes)"
vector 510  Net802154MultiGateway.host[31].wrappedHost.wlan[0].mac  unicastDataSentDown:vector(packetBytes)  ETV
attr interpolationmode  none
attr source  unicastDataSentDown
attr title  "unicast packet sent down of type DATA, vector(packetBytes)"
vector 767  Net802154MultiGateway.host[47].wrappedHost.wlan[0].mac  broadDataSentDown:vector(packetBytes)  ETV
attr interpolationmode  none
attr source  broadcastDataSentDown
attr title  "broadcast packet sent down of type DATA, vector(packetBytes)"
vector 622  Net802154MultiGateway.host[38].wrappedHost.wlan[0].mac  unicastDataSentDown:vector(packetBytes)  ETV
attr interpolationmode  none
attr source  unicastDataSentDown
attr title  "unicast packet sent down of type DATA, vector(packetBytes)"
vector 527  Net802154MultiGateway.host[32].wrappedHost.wlan[0].mac  broadDataSentDown:vector(packetBytes)  ETV
attr interpolationmode  none
attr source  broadcastDataSentDown
attr title  "broadcast packet sent down of type DATA, vector(packetBytes)"
vector 591  Net802154MultiGateway.host[36].wrappedHost.wlan[0].mac  broadDataSentDown:vector(packetBytes)  ETV
attr interpolationmode  none
attr source  broadcastDataSentDown
attr title  "broadcast packet sent down of type DATA, vector(packetBytes)"
vector 638  Net802154MultiGateway.host[39].wrappedHost.wlan[0].mac  unicastDataSentDown:vector(packetBytes)  ETV
attr interpolationmode  none
attr source  unicastDataSentDown
attr title  "unicast packet sent down of type DATA, vector(packetBytes)"
vector 671  Net802154MultiGateway.host[41].wrappedHost.wlan[0].mac  broadDataSentDown:vector(packetBytes)  ETV
attr interpolationmode  none
attr source  broadcastDataSentDown
attr title  "broadcast packet sent down of type DATA, vector(packetBytes)"
vector 879  Net802154MultiGateway.host[54].wrappedHost.wlan[0].mac  broadDataSentDown:vector(packetBytes)  ETV
attr interpolationmode  none
attr source  broadcastDataSentDown
attr title  "broadcast packet sent down of type DATA, vector(packetBytes)"
vector 590  Net802154MultiGateway.host[36].wrappedHost.wlan[0].mac  unicastDataSentDown:vector(packetBytes)  ETV
attr interpolationmode  none
attr source  unicastDataSentDown
attr title  "unicast packet sent down of type DATA, vector(packetBytes)"
vector 670  Net802154MultiGateway.host[41].wrappedHost.wlan[0].mac  unicastDataSentDown:vector(packetBytes)  ETV
attr interpolationmode  none
attr source  unicastDataSentDown
attr title  "unicast packet sent down of type DATA, vector(packetBytes)"
vector 463  Net802154MultiGateway.host[28].wrappedHost.wlan[0].mac  broadDataSentDown:vector(packetBytes)  ETV
attr interpolationmode  none
attr source  broadcastDataSentDown
attr title  "broadcast packet sent down of type DATA, vector(packetBytes)"
vector 446  Net802154MultiGateway.host[27].wrappedHost.wlan[0].mac  unicastDataSentDown:vector(packetBytes)  ETV
attr interpolationmode  none
attr source  unicastDataSentDown
attr title  "unicast packet sent down of type DATA, vector(packetBytes)"
vector 911  Net802154MultiGateway.host[56].wrappedHost.wlan[0].mac  broadDataSentDown:vector(packetBytes)  ETV
attr interpolationmode  none
attr source  broadcastDataSentDown
attr title  "broadcast packet sent down of type DATA, vector(packetBytes)"
vector 974  Net802154MultiGateway.host[60].wrappedHost.wlan[0].mac  unicastDataSentDown:vector(packetBytes)  ETV
attr interpolationmode  none
attr source  unicastDataSentDown
attr title  "unicast packet sent down of type DATA, vector(packetBytes)"
vector 127  Net802154MultiGateway.host[7].wrappedHost.wlan[0].mac  broadDataSentDown:vector(packetBytes)  ETV
attr interpolationmode  none
attr source  broadcastDataSentDown
attr title  "broadcast packet sent down of type DATA, vector(packetBytes)"
vector 382  Net802154MultiGateway.host[23].wrappedHost.wlan[0].mac  unicastDataSentDown:vector(packetBytes)  ETV
attr interpolationmode  none
attr source  unicastDataSentDown
attr title  "unicast packet sent down of type DATA, vector(packetBytes)"
vector 495  Net802154MultiGateway.host[30].wrappedHost.wlan[0].mac  broadDataSentDown:vector(packetBytes)  ETV
attr interpolationmode  none
attr source  broadcastDataSentDown
attr title  "broadcast packet sent down of type DATA, vector(packetBytes)"
vector 511  Net802154MultiGateway.host[31].wrappedHost.wlan[0].mac  broadDataSentDown:vector(packetBytes)  ETV
attr interpolationmode  none
attr source  broadcastDataSentDown
attr title  "broadcast packet sent down of type DATA, vector(packetBytes)"
vector 430  Net802154MultiGateway.host[26].wrappedHost.wlan[0].mac  unicastDataSentDown:vector(packetBytes)  ETV
attr interpolationmode  none
attr source  unicastDataSentDown
attr title  "unicast packet sent down of type DATA, vector(packetBytes)"
vector 447  Net802154MultiGateway.host[27].wrappedHost.wlan[0].mac  broadDataSentDown:vector(packetBytes)  ETV
attr interpolationmode  none
attr source  broadcastDataSentDown
attr title  "broadcast packet sent down of type DATA, vector(packetBytes)"
vector 543  Net802154MultiGateway.host[33].wrappedHost.wlan[0].mac  broadDataSentDown:vector(packetBytes)  ETV
attr interpolationmode  none
attr source  broadcastDataSentDown
attr title  "broadcast packet sent down of type DATA, vector(packetBytes)"
vector 350  Net802154MultiGateway.host[21].wrappedHost.wlan[0].mac  unicastDataSentDown:vector(packetBytes)  ETV
attr interpolationmode  none
attr source  unicastDataSentDown
attr title  "unicast packet sent down of type DATA, vector(packetBytes)"
vector 399  Net802154MultiGateway.host[24].wrappedHost.wlan[0].mac  broadDataSentDown:vector(packetBytes)  ETV
attr interpolationmode  none
attr source  broadcastDataSentDown
attr title  "broadcast packet sent down of type DATA, vector(packetBytes)"
vector 606  Net802154MultiGateway.host[37].wrappedHost.wlan[0].mac  unicastDataSentDown:vector(packetBytes)  ETV
attr interpolationmode  none
attr source  unicastDataSentDown
attr title  "unicast packet sent down of type DATA, vector(packetBytes)"
vector 751  Net802154MultiGateway.host[46].wrappedHost.wlan[0].mac  broadDataSentDown:vector(packetBytes)  ETV
attr interpolationmode  none
attr source  broadcastDataSentDown
attr title  "broadcast packet sent down of type DATA, vector(packetBytes)"
vector 863  Net802154MultiGateway.host[53].wrappedHost.wlan[0].mac  broadDataSentDown:vector(packetBytes)  ETV
attr interpolationmode  none
attr source  broadcastDataSentDown
attr title  "broadcast packet sent down of type DATA, vector(packetBytes)"
vector 846  Net802154MultiGateway.host[52].wrappedHost.wlan[0].mac  unicastDataSentDown:vector(packetBytes)  ETV
attr interpolationmode  none
attr source  unicastDataSentDown
attr title  "unicast packet sent down of type DATA, vector(packetBytes)"
vector 111  Net802154MultiGateway.host[6].wrappedHost.wlan[0].mac  broadDataSentDown:vector(packetBytes)  ETV
attr interpolationmode  none
attr source  broadcastDataSentDown
attr title  "broadcast packet sent down of type DATA, vector(packetBytes)"
vector 799  Net802154MultiGateway.host[49].wrappedHost.wlan[0].mac  broadDataSentDown:vector(packetBytes)  ETV
attr interpolationmode  none
attr source  broadcastDataSentDown
attr title  "broadcast packet sent down of type DATA, vector(packetBytes)"
vector 575  Net802154MultiGateway.host[35].wrappedHost.wlan[0].mac  broadDataSentDown:vector(packetBytes)  ETV
attr interpolationmode  none
attr source  broadcastDataSentDown
attr title  "broadcast packet sent down of type DATA, vector(packetBytes)"
vector 351  Net802154MultiGateway.host[21].wrappedHost.wlan[0].mac  broadDataSentDown:vector(packetBytes)  ETV
attr interpolationmode  none
attr source  broadcastDataSentDown
attr title  "broadcast packet sent down of type DATA, vector(packetBytes)"
vector 878  Net802154MultiGateway.host[54].wrappedHost.wlan[0].mac  unicastDataSentDown:vector(packetBytes)  ETV
attr interpolationmode  none
attr source  unicastDataSentDown
attr title  "unicast packet sent down of type DATA, vector(packetBytes)"
vector 862  Net802154MultiGateway.host[53].wrappedHost.wlan[0].mac  unicastDataSentDown:vector(packetBytes)  ETV
attr interpolationmode  none
attr source  unicastDataSentDown
attr title  "unicast packet sent down of type DATA, vector(packetBytes)"
vector 607  Net802154MultiGateway.host[37].wrappedHost.wlan[0].mac  broadDataSentDown:vector(packetBytes)  ETV
attr interpolationmode  none
attr source  broadcastDataSentDown
attr title  "broadcast packet sent down of type DATA, vector(packetBytes)"
vector 655  Net802154MultiGateway.host[40].wrappedHost.wlan[0].mac  broadDataSentDown:vector(packetBytes)  ETV
attr interpolationmode  none
attr source  broadcastDataSentDown
attr title  "broadcast packet sent down of type DATA, vector(packetBytes)"
vector 79  Net802154MultiGateway.host[4].wrappedHost.wlan[0].mac  broadDataSentDown:vector(packetBytes)  ETV
attr interpolationmode  none
attr source  broadcastDataSentDown
attr title  "broadcast packet sent down of type DATA, vector(packetBytes)"
vector 847  Net802154MultiGateway.host[52].wrappedHost.wlan[0].mac  broadDataSentDown:vector(packetBytes)  ETV
attr interpolationmode  none
attr source  broadcastDataSentDown
attr title  "broadcast packet sent down of type DATA, vector(packetBytes)"
vector 991  Net802154MultiGateway.host[61].wrappedHost.wlan[0].mac  broadDataSentDown:vector(packetBytes)  ETV
attr interpolationmode  none
attr source  broadcastDataSentDown
attr title  "broadcast packet sent down of type DATA, vector(packetBytes)"
vector 990  Net802154MultiGateway.host[61].wrappedHost.wlan[0].mac  unicastDataSentDown:vector(packetBytes)  ETV
attr interpolationmode  none
attr source  unicastDataSentDown
attr title  "unicast packet sent down of type DATA, vector(packetBytes)"
vector 318  Net802154MultiGateway.host[19].wrappedHost.wlan[0].mac  unicastDataSentDown:vector(packetBytes)  ETV
attr interpolationmode  none
attr source  unicastDataSentDown
attr title  "unicast packet sent down of type DATA, vector(packetBytes)"
vector 559  Net802154MultiGateway.host[34].wrappedHost.wlan[0].mac  broadDataSentDown:vector(packetBytes)  ETV
attr interpolationmode  none
attr source  broadcastDataSentDown
attr title  "broadcast packet sent down of type DATA, vector(packetBytes)"
vector 95  Net802154MultiGateway.host[5].wrappedHost.wlan[0].mac  broadDataSentDown:vector(packetBytes)  ETV
attr interpolationmode  none
attr source  broadcastDataSentDown
attr title  "broadcast packet sent down of type DATA, vector(packetBytes)"
vector 335  Net802154MultiGateway.host[20].wrappedHost.wlan[0].mac  broadDataSentDown:vector(packetBytes)  ETV
attr interpolationmode  none
attr source  broadcastDataSentDown
attr title  "broadcast packet sent down of type DATA, vector(packetBytes)"
vector 927  Net802154MultiGateway.host[57].wrappedHost.wlan[0].mac  broadDataSentDown:vector(packetBytes)  ETV
attr interpolationmode  none
attr source  broadcastDataSentDown
attr title  "broadcast packet sent down of type DATA, vector(packetBytes)"
vector 367  Net802154MultiGateway.host[22].wrappedHost.wlan[0].mac  broadDataSentDown:vector(packetBytes)  ETV
attr interpolationmode  none
attr source  broadcastDataSentDown
attr title  "broadcast packet sent down of type DATA, vector(packetBytes)"
vector 639  Net802154MultiGateway.host[39].wrappedHost.wlan[0].mac  broadDataSentDown:vector(packetBytes)  ETV
attr interpolationmode  none
attr source  broadcastDataSentDown
attr title  "broadcast packet sent down of type DATA, vector(packetBytes)"
vector 191  Net802154MultiGateway.host[11].wrappedHost.wlan[0].mac  broadDataSentDown:vector(packetBytes)  ETV
attr interpolationmode  none
attr source  broadcastDataSentDown
attr title  "broadcast packet sent down of type DATA, vector(packetBytes)"
vector 78  Net802154MultiGateway.host[4].wrappedHost.wlan[0].mac  unicastDataSentDown:vector(packetBytes)  ETV
attr interpolationmode  none
attr source  unicastDataSentDown
attr title  "unicast packet sent down of type DATA, vector(packetBytes)"
vector 959  Net802154MultiGateway.host[59].wrappedHost.wlan[0].mac  broadDataSentDown:vector(packetBytes)  ETV
attr interpolationmode  none
attr source  broadcastDataSentDown
attr title  "broadcast packet sent down of type DATA, vector(packetBytes)"
vector 175  Net802154MultiGateway.host[10].wrappedHost.wlan[0].mac  broadDataSentDown:vector(packetBytes)  ETV
attr interpolationmode  none
attr source  broadcastDataSentDown
attr title  "broadcast packet sent down of type DATA, vector(packetBytes)"
vector 431  Net802154MultiGateway.host[26].wrappedHost.wlan[0].mac  broadDataSentDown:vector(packetBytes)  ETV
attr interpolationmode  none
attr source  broadcastDataSentDown
attr title  "broadcast packet sent down of type DATA, vector(packetBytes)"
vector 783  Net802154MultiGateway.host[48].wrappedHost.wlan[0].mac  broadDataSentDown:vector(packetBytes)  ETV
attr interpolationmode  none
attr source  broadcastDataSentDown
attr title  "broadcast packet sent down of type DATA, vector(packetBytes)"
vector 31  Net802154MultiGateway.host[1].wrappedHost.wlan[0].mac  broadDataSentDown:vector(packetBytes)  ETV
attr interpolationmode  none
attr source  broadcastDataSentDown
attr title  "broadcast packet sent down of type DATA, vector(packetBytes)"
vector 831  Net802154MultiGateway.host[51].wrappedHost.wlan[0].mac  broadDataSentDown:vector(packetBytes)  ETV
attr interpolationmode  none
attr source  broadcastDataSentDown
attr title  "broadcast packet sent down of type DATA, vector(packetBytes)"
vector 479  Net802154MultiGateway.host[29].wrappedHost.wlan[0].mac  broadDataSentDown:vector(packetBytes)  ETV
attr interpolationmode  none
attr source  broadcastDataSentDown
attr title  "broadcast packet sent down of type DATA, vector(packetBytes)"
vector 190  Net802154MultiGateway.host[11].wrappedHost.wlan[0].mac  unicastDataSentDown:vector(packetBytes)  ETV
attr interpolationmode  none
attr source  unicastDataSentDown
attr title  "unicast packet sent down of type DATA, vector(packetBytes)"
vector 383  Net802154MultiGateway.host[23].wrappedHost.wlan[0].mac  broadDataSentDown:vector(packetBytes)  ETV
attr interpolationmode  none
attr source  broadcastDataSentDown
attr title  "broadcast packet sent down of type DATA, vector(packetBytes)"
vector 719  Net802154MultiGateway.host[44].wrappedHost.wlan[0].mac  broadDataSentDown:vector(packetBytes)  ETV
attr interpolationmode  none
attr source  broadcastDataSentDown
attr title  "broadcast packet sent down of type DATA, vector(packetBytes)"
vector 623  Net802154MultiGateway.host[38].wrappedHost.wlan[0].mac  broadDataSentDown:vector(packetBytes)  ETV
attr interpolationmode  none
attr source  broadcastDataSentDown
attr title  "broadcast packet sent down of type DATA, vector(packetBytes)"
vector 687  Net802154MultiGateway.host[42].wrappedHost.wlan[0].mac  broadDataSentDown:vector(packetBytes)  ETV
attr interpolationmode  none
attr source  broadcastDataSentDown
attr title  "broadcast packet sent down of type DATA, vector(packetBytes)"
vector 895  Net802154MultiGateway.host[55].wrappedHost.wlan[0].mac  broadDataSentDown:vector(packetBytes)  ETV
attr interpolationmode  none
attr source  broadcastDataSentDown
attr title  "broadcast packet sent down of type DATA, vector(packetBytes)"
vector 703  Net802154MultiGateway.host[43].wrappedHost.wlan[0].mac  broadDataSentDown:vector(packetBytes)  ETV
attr interpolationmode  none
attr source  broadcastDataSentDown
attr title  "broadcast packet sent down of type DATA, vector(packetBytes)"
vector 319  Net802154MultiGateway.host[19].wrappedHost.wlan[0].mac  broadDataSentDown:vector(packetBytes)  ETV
attr interpolationmode  none
attr source  broadcastDataSentDown
attr title  "broadcast packet sent down of type DATA, vector(packetBytes)"
vector 975  Net802154MultiGateway.host[60].wrappedHost.wlan[0].mac  broadDataSentDown:vector(packetBytes)  ETV
attr interpolationmode  none
attr source  broadcastDataSentDown
attr title  "broadcast packet sent down of type DATA, vector(packetBytes)"
vector 287  Net802154MultiGateway.host[17].wrappedHost.wlan[0].mac  broadDataSentDown:vector(packetBytes)  ETV
attr interpolationmode  none
attr source  broadcastDataSentDown
attr title  "broadcast packet sent down of type DATA, vector(packetBytes)"
vector 943  Net802154MultiGateway.host[58].wrappedHost.wlan[0].mac  broadDataSentDown:vector(packetBytes)  ETV
attr interpolationmode  none
attr source  broadcastDataSentDown
attr title  "broadcast packet sent down of type DATA, vector(packetBytes)"
vector 702  Net802154MultiGateway.host[43].wrappedHost.wlan[0].mac  unicastDataSentDown:vector(packetBytes)  ETV
attr interpolationmode  none
attr source  unicastDataSentDown
attr title  "unicast packet sent down of type DATA, vector(packetBytes)"
vector 942  Net802154MultiGateway.host[58].wrappedHost.wlan[0].mac  unicastDataSentDown:vector(packetBytes)  ETV
attr interpolationmode  none
attr source  unicastDataSentDown
attr title  "unicast packet sent down of type DATA, vector(packetBytes)"
vector 47  Net802154MultiGateway.host[2].wrappedHost.wlan[0].mac  broadDataSentDown:vector(packetBytes)  ETV
attr interpolationmode  none
attr source  broadcastDataSentDown
attr title  "broadcast packet sent down of type DATA, vector(packetBytes)"
vector 255  Net802154MultiGateway.host[15].wrappedHost.wlan[0].mac  broadDataSentDown:vector(packetBytes)  ETV
attr interpolationmode  none
attr source  broadcastDataSentDown
attr title  "broadcast packet sent down of type DATA, vector(packetBytes)"
vector 415  Net802154MultiGateway.host[25].wrappedHost.wlan[0].mac  broadDataSentDown:vector(packetBytes)  ETV
attr interpolationmode  none
attr source  broadcastDataSentDown
attr title  "broadcast packet sent down of type DATA, vector(packetBytes)"
vector 207  Net802154MultiGateway.host[12].wrappedHost.wlan[0].mac  broadDataSentDown:vector(packetBytes)  ETV
attr interpolationmode  none
attr source  broadcastDataSentDown
attr title  "broadcast packet sent down of type DATA, vector(packetBytes)"
vector 718  Net802154MultiGateway.host[44].wrappedHost.wlan[0].mac  unicastDataSentDown:vector(packetBytes)  ETV
attr interpolationmode  none
attr source  unicastDataSentDown
attr title  "unicast packet sent down of type DATA, vector(packetBytes)"
vector 254  Net802154MultiGateway.host[15].wrappedHost.wlan[0].mac  unicastDataSentDown:vector(packetBytes)  ETV
attr interpolationmode  none
attr source  unicastDataSentDown
attr title  "unicast packet sent down of type DATA, vector(packetBytes)"
vector 750  Net802154MultiGateway.host[46].wrappedHost.wlan[0].mac  unicastDataSentDown:vector(packetBytes)  ETV
attr interpolationmode  none
attr source  unicastDataSentDown
attr title  "unicast packet sent down of type DATA, vector(packetBytes)"
vector 766  Net802154MultiGateway.host[47].wrappedHost.wlan[0].mac  unicastDataSentDown:vector(packetBytes)  ETV
attr interpolationmode  none
attr source  unicastDataSentDown
attr title  "unicast packet sent down of type DATA, vector(packetBytes)"
vector 814  Net802154MultiGateway.host[50].wrappedHost.wlan[0].mac  unicastDataSentDown:vector(packetBytes)  ETV
attr interpolationmode  none
attr source  unicastDataSentDown
attr title  "unicast packet sent down of type DATA, vector(packetBytes)"
vector 734  Net802154MultiGateway.host[45].wrappedHost.wlan[0].mac  unicastDataSentDown:vector(packetBytes)  ETV
attr interpolationmode  none
attr source  unicastDataSentDown
attr title  "unicast packet sent down of type DATA, vector(packetBytes)"
vector 735  Net802154MultiGateway.host[45].wrappedHost.wlan[0].mac  broadDataSentDown:vector(packetBytes)  ETV
attr interpolationmode  none
attr source  broadcastDataSentDown
attr title  "broadcast packet sent down of type DATA, vector(packetBytes)"
vector 214  Net802154MultiGateway.host[13].wrappedHost.trafficgen  sentPk:vector(packetBytes)  ETV
attr interpolationmode  none
attr source  sentPk
attr title  "packets sent, vector(packetBytes)"
vector 218  Net802154MultiGateway.host[13].wrappedHost.trafficgen  PRR:vector  ETV
attr interpolationmode  none
attr source  count(sinkRcvdPk)/count(sentPk)
attr title  "PRR, vector"
vector 854  Net802154MultiGateway.host[53].wrappedHost.trafficgen  sentPk:vector(packetBytes)  ETV
attr interpolationmode  none
attr source  sentPk
attr title  "packets sent, vector(packetBytes)"
vector 858  Net802154MultiGateway.host[53].wrappedHost.trafficgen  PRR:vector  ETV
attr interpolationmode  none
attr source  count(sinkRcvdPk)/count(sentPk)
attr title  "PRR, vector"
vector 406  Net802154MultiGateway.host[25].wrappedHost.trafficgen  sentPk:vector(packetBytes)  ETV
attr interpolationmode  none
attr source  sentPk
attr title  "packets sent, vector(packetBytes)"
vector 410  Net802154MultiGateway.host[25].wrappedHost.trafficgen  PRR:vector  ETV
attr interpolationmode  none
attr source  count(sinkRcvdPk)/count(sentPk)
attr title  "PRR, vector"
vector 566  Net802154MultiGateway.host[35].wrappedHost.trafficgen  sentPk:vector(packetBytes)  ETV
attr interpolationmode  none
attr source  sentPk
attr title  "packets sent, vector(packetBytes)"
vector 570  Net802154MultiGateway.host[35].wrappedHost.trafficgen  PRR:vector  ETV
attr interpolationmode  none
attr source  count(sinkRcvdPk)/count(sentPk)
attr title  "PRR, vector"
vector 216  Net802154MultiGateway.host[13].wrappedHost.trafficgen  sinkRcvdPk:vector(packetBytes)  ETV
attr interpolationmode  none
attr source  sinkRcvdPk
attr title  "own packets received by sink, vector(packetBytes)"
vector 5  Net802154MultiGateway.host[0].wrappedHost.trafficgen  rcvdPk:vector(packetBytes)  ETV
attr interpolationmode  none
attr source  rcvdPk
attr title  "packets received, vector(packetBytes)"
vector 7  Net802154MultiGateway.host[0].wrappedHost.trafficgen  endToEndDelay:vector  ETV
attr interpolationmode  none
attr source  messageAge(rcvdPk)
attr title  "end-to-end delay, vector"
attr unit  s
vector 198  Net802154MultiGateway.host[12].wrappedHost.trafficgen  sentPk:vector(packetBytes)  ETV
attr interpolationmode  none
attr source  sentPk
attr title  "packets sent, vector(packetBytes)"
vector 202  Net802154MultiGateway.host[12].wrappedHost.trafficgen  PRR:vector  ETV
attr interpolationmode  none
attr source  count(sinkRcvdPk)/count(sentPk)
attr title  "PRR, vector"
vector 678  Net802154MultiGateway.host[42].wrappedHost.trafficgen  sentPk:vector(packetBytes)  ETV
attr interpolationmode  none
attr source  sentPk
attr title  "packets sent, vector(packetBytes)"
vector 682  Net802154MultiGateway.host[42].wrappedHost.trafficgen  PRR:vector  ETV
attr interpolationmode  none
attr source  count(sinkRcvdPk)/count(sentPk)
attr title  "PRR, vector"
vector 182  Net802154MultiGateway.host[11].wrappedHost.trafficgen  sentPk:vector(packetBytes)  ETV
attr interpolationmode  none
attr source  sentPk
attr title  "packets sent, vector(packetBytes)"
vector 186  Net802154MultiGateway.host[11].wrappedHost.trafficgen  PRR:vector  ETV
attr interpolationmode  none
attr source  count(sinkRcvdPk)/count(sentPk)
attr title  "PRR, vector"
vector 184  Net802154MultiGateway.host[11].wrappedHost.trafficgen  sinkRcvdPk:vector(packetBytes)  ETV
attr interpolationmode  none
attr source  sinkRcvdPk
attr title  "own packets received by sink, vector(packetBytes)"
vector 680  Net802154MultiGateway.host[42].wrappedHost.trafficgen  sinkRcvdPk:vector(packetBytes)  ETV
attr interpolationmode  none
attr source  sinkRcvdPk
attr title  "own packets received by sink, vector(packetBytes)"
vector 856  Net802154MultiGateway.host[53].wrappedHost.trafficgen  sinkRcvdPk:vector(packetBytes)  ETV
attr interpolationmode  none
attr source  sinkRcvdPk
attr title  "own packets received by sink, vector(packetBytes)"
vector 550  Net802154MultiGateway.host[34].wrappedHost.trafficgen  sentPk:vector(packetBytes)  ETV
attr interpolationmode  none
attr source  sentPk
attr title  "packets sent, vector(packetBytes)"
vector 554  Net802154MultiGateway.host[34].wrappedHost.trafficgen  PRR:vector  ETV
attr interpolationmode  none
attr source  count(sinkRcvdPk)/count(sentPk)
attr title  "PRR, vector"
vector 806  Net802154MultiGateway.host[50].wrappedHost.trafficgen  sentPk:vector(packetBytes)  ETV
attr interpolationmode  none
attr source  sentPk
attr title  "packets sent, vector(packetBytes)"
vector 810  Net802154MultiGateway.host[50].wrappedHost.trafficgen  PRR:vector  ETV
attr interpolationmode  none
attr source  count(sinkRcvdPk)/count(sentPk)
attr title  "PRR, vector"
vector 808  Net802154MultiGateway.host[50].wrappedHost.trafficgen  sinkRcvdPk:vector(packetBytes)  ETV
attr interpolationmode  none
attr source  sinkRcvdPk
attr title  "own packets received by sink, vector(packetBytes)"
vector 614  Net802154MultiGateway.host[38].wrappedHost.trafficgen  sentPk:vector(packetBytes)  ETV
attr interpolationmode  none
attr source  sentPk
attr title  "packets sent, vector(packetBytes)"
vector 618  Net802154MultiGateway.host[38].wrappedHost.trafficgen  PRR:vector  ETV
attr interpolationmode  none
attr source  count(sinkRcvdPk)/count(sentPk)
attr title  "PRR, vector"
vector 246  Net802154MultiGateway.host[15].wrappedHost.trafficgen  sentPk:vector(packetBytes)  ETV
attr interpolationmode  none
attr source  sentPk
attr title  "packets sent, vector(packetBytes)"
vector 250  Net802154MultiGateway.host[15].wrappedHost.trafficgen  PRR:vector  ETV
attr interpolationmode  none
attr source  count(sinkRcvdPk)/count(sentPk)
attr title  "PRR, vector"
vector 150  Net802154MultiGateway.host[9].wrappedHost.trafficgen  sentPk:vector(packetBytes)  ETV
attr interpolationmode  none
attr source  sentPk
attr title  "packets sent, vector(packetBytes)"
vector 154  Net802154MultiGateway.host[9].wrappedHost.trafficgen  PRR:vector  ETV
attr interpolationmode  none
attr source  count(sinkRcvdPk)/count(sentPk)
attr title  "PRR, vector"
vector 552  Net802154MultiGateway.host[34].wrappedHost.trafficgen  sinkRcvdPk:vector(packetBytes)  ETV
attr interpolationmode  none
attr source  sinkRcvdPk
attr title  "own packets received by sink, vector(packetBytes)"
vector 22  Net802154MultiGateway.host[1].wrappedHost.trafficgen  sentPk:vector(packetBytes)  ETV
attr interpolationmode  none
attr source  sentPk
attr title  "packets sent, vector(packetBytes)"
vector 26  Net802154MultiGateway.host[1].wrappedHost.trafficgen  PRR:vector  ETV
attr interpolationmode  none
attr source  count(sinkRcvdPk)/count(sentPk)
attr title  "PRR, vector"
vector 248  Net802154MultiGateway.host[15].wrappedHost.trafficgen  sinkRcvdPk:vector(packetBytes)  ETV
attr interpolationmode  none
attr source  sinkRcvdPk
attr title  "own packets received by sink, vector(packetBytes)"
vector 390  Net802154MultiGateway.host[24].wrappedHost.trafficgen  sentPk:vector(packetBytes)  ETV
attr interpolationmode  none
attr source  sentPk
attr title  "packets sent, vector(packetBytes)"
vector 394  Net802154MultiGateway.host[24].wrappedHost.trafficgen  PRR:vector  ETV
attr interpolationmode  none
attr source  count(sinkRcvdPk)/count(sentPk)
attr title  "PRR, vector"
vector 630  Net802154MultiGateway.host[39].wrappedHost.trafficgen  sentPk:vector(packetBytes)  ETV
attr interpolationmode  none
attr source  sentPk
attr title  "packets sent, vector(packetBytes)"
vector 634  Net802154MultiGateway.host[39].wrappedHost.trafficgen  PRR:vector  ETV
attr interpolationmode  none
attr source  count(sinkRcvdPk)/count(sentPk)
attr title  "PRR, vector"
vector 982  Net802154MultiGateway.host[61].wrappedHost.trafficgen  sentPk:vector(packetBytes)  ETV
attr interpolationmode  none
attr source  sentPk
attr title  "packets sent, vector(packetBytes)"
vector 986  Net802154MultiGateway.host[61].wrappedHost.trafficgen  PRR:vector  ETV
attr interpolationmode  none
attr source  count(sinkRcvdPk)/count(sentPk)
attr title  "PRR, vector"
vector 200  Net802154MultiGateway.host[12].wrappedHost.trafficgen  sinkRcvdPk:vector(packetBytes)  ETV
attr interpolationmode  none
attr source  sinkRcvdPk
attr title  "own packets received by sink, vector(packetBytes)"
vector 726  Net802154MultiGateway.host[45].wrappedHost.trafficgen  sentPk:vector(packetBytes)  ETV
attr interpolationmode  none
attr source  sentPk
attr title  "packets sent, vector(packetBytes)"
vector 730  Net802154MultiGateway.host[45].wrappedHost.trafficgen  PRR:vector  ETV
attr interpolationmode  none
attr source  count(sinkRcvdPk)/count(sentPk)
attr title  "PRR, vector"
vector 662  Net802154MultiGateway.host[41].wrappedHost.trafficgen  sentPk:vector(packetBytes)  ETV
attr interpolationmode  none
attr source  sentPk
attr title  "packets sent, vector(packetBytes)"
vector 666  Net802154MultiGateway.host[41].wrappedHost.trafficgen  PRR:vector  ETV
attr interpolationmode  none
attr source  count(sinkRcvdPk)/count(sentPk)
attr title  "PRR, vector"
vector 152  Net802154MultiGateway.host[9].wrappedHost.trafficgen  sinkRcvdPk:vector(packetBytes)  ETV
attr interpolationmode  none
attr source  sinkRcvdPk
attr title  "own packets received by sink, vector(packetBytes)"
vector 534  Net802154MultiGateway.host[33].wrappedHost.trafficgen  sentPk:vector(packetBytes)  ETV
attr interpolationmode  none
attr source  sentPk
attr title  "packets sent, vector(packetBytes)"
vector 538  Net802154MultiGateway.host[33].wrappedHost.trafficgen  PRR:vector  ETV
attr interpolationmode  none
attr source  count(sinkRcvdPk)/count(sentPk)
attr title  "PRR, vector"
vector 774  Net802154MultiGateway.host[48].wrappedHost.trafficgen  sentPk:vector(packetBytes)  ETV
attr interpolationmode  none
attr source  sentPk
attr title  "packets sent, vector(packetBytes)"
vector 778  Net802154MultiGateway.host[48].wrappedHost.trafficgen  PRR:vector  ETV
attr interpolationmode  none
attr source  count(sinkRcvdPk)/count(sentPk)
attr title  "PRR, vector"
vector 568  Net802154MultiGateway.host[35].wrappedHost.trafficgen  sinkRcvdPk:vector(packetBytes)  ETV
attr interpolationmode  none
attr source  sinkRcvdPk
attr title  "own packets received by sink, vector(packetBytes)"
vector 664  Net802154MultiGateway.host[41].wrappedHost.trafficgen  sinkRcvdPk:vector(packetBytes)  ETV
attr interpolationmode  none
attr source  sinkRcvdPk
attr title  "own packets received by sink, vector(packetBytes)"
vector 838  Net802154MultiGateway.host[52].wrappedHost.trafficgen  sentPk:vector(packetBytes)  ETV
attr interpolationmode  none
attr source  sentPk
attr title  "packets sent, vector(packetBytes)"
vector 842  Net802154MultiGateway.host[52].wrappedHost.trafficgen  PRR:vector  ETV
attr interpolationmode  none
attr source  count(sinkRcvdPk)/count(sentPk)
attr title  "PRR, vector"
vector 118  Net802154MultiGateway.host[7].wrappedHost.trafficgen  sentPk:vector(packetBytes)  ETV
attr interpolationmode  none
attr source  sentPk
attr title  "packets sent, vector(packetBytes)"
vector 122  Net802154MultiGateway.host[7].wrappedHost.trafficgen  PRR:vector  ETV
attr interpolationmode  none
attr source  count(sinkRcvdPk)/count(sentPk)
attr title  "PRR, vector"
vector 822  Net802154MultiGateway.host[51].wrappedHost.trafficgen  sentPk:vector(packetBytes)  ETV
attr interpolationmode  none
attr source  sentPk
attr title  "packets sent, vector(packetBytes)"
vector 826  Net802154MultiGateway.host[51].wrappedHost.trafficgen  PRR:vector  ETV
attr interpolationmode  none
attr source  count(sinkRcvdPk)/count(sentPk)
attr title  "PRR, vector"
vector 632  Net802154MultiGateway.host[39].wrappedHost.trafficgen  sinkRcvdPk:vector(packetBytes)  ETV
attr interpolationmode  none
attr source  sinkRcvdPk
attr title  "own packets received by sink, vector(packetBytes)"
vector 728  Net802154MultiGateway.host[45].wrappedHost.trafficgen  sinkRcvdPk:vector(packetBytes)  ETV
attr interpolationmode  none
attr source  sinkRcvdPk
attr title  "own packets received by sink, vector(packetBytes)"
vector 120  Net802154MultiGateway.host[7].wrappedHost.trafficgen  sinkRcvdPk:vector(packetBytes)  ETV
attr interpolationmode  none
attr source  sinkRcvdPk
attr title  "own packets received by sink, vector(packetBytes)"
vector 694  Net802154MultiGateway.host[43].wrappedHost.trafficgen  sentPk:vector(packetBytes)  ETV
attr interpolationmode  none
attr source  sentPk
attr title  "packets sent, vector(packetBytes)"
vector 698  Net802154MultiGateway.host[43].wrappedHost.trafficgen  PRR:vector  ETV
attr interpolationmode  none
attr source  count(sinkRcvdPk)/count(sentPk)
attr title  "PRR, vector"
vector 24  Net802154MultiGateway.host[1].wrappedHost.trafficgen  sinkRcvdPk:vector(packetBytes)  ETV
attr interpolationmode  none
attr source  sinkRcvdPk
attr title  "own packets received by sink, vector(packetBytes)"
vector 536  Net802154MultiGateway.host[33].wrappedHost.trafficgen  sinkRcvdPk:vector(packetBytes)  ETV
attr interpolationmode  none
attr source  sinkRcvdPk
attr title  "own packets received by sink, vector(packetBytes)"
vector 582  Net802154MultiGateway.host[36].wrappedHost.trafficgen  sentPk:vector(packetBytes)  ETV
attr interpolationmode  none
attr source  sentPk
attr title  "packets sent, vector(packetBytes)"
vector 586  Net802154MultiGateway.host[36].wrappedHost.trafficgen  PRR:vector  ETV
attr interpolationmode  none
attr source  count(sinkRcvdPk)/count(sentPk)
attr title  "PRR, vector"
vector 102  Net802154MultiGateway.host[6].wrappedHost.trafficgen  sentPk:vector(packetBytes)  ETV
attr interpolationmode  none
attr source  sentPk
attr title  "packets sent, vector(packetBytes)"
vector 106  Net802154MultiGateway.host[6].wrappedHost.trafficgen  PRR:vector  ETV
attr interpolationmode  none
attr source  count(sinkRcvdPk)/count(sentPk)
attr title  "PRR, vector"
vector 70  Net802154MultiGateway.host[4].wrappedHost.trafficgen  sentPk:vector(packetBytes)  ETV
attr interpolationmode  none
attr source  sentPk
attr title  "packets sent, vector(packetBytes)"
vector 74  Net802154MultiGateway.host[4].wrappedHost.trafficgen  PRR:vector  ETV
attr interpolationmode  none
attr source  count(sinkRcvdPk)/count(sentPk)
attr title  "PRR, vector"
vector 840  Net802154MultiGateway.host[52].wrappedHost.trafficgen  sinkRcvdPk:vector(packetBytes)  ETV
attr interpolationmode  none
attr source  sinkRcvdPk
attr title  "own packets received by sink, vector(packetBytes)"
vector 616  Net802154MultiGateway.host[38].wrappedHost.trafficgen  sinkRcvdPk:vector(packetBytes)  ETV
attr interpolationmode  none
attr source  sinkRcvdPk
attr title  "own packets received by sink, vector(packetBytes)"
vector 326  Net802154MultiGateway.host[20].wrappedHost.trafficgen  sentPk:vector(packetBytes)  ETV
attr interpolationmode  none
attr source  sentPk
attr title  "packets sent, vector(packetBytes)"
vector 330  Net802154MultiGateway.host[20].wrappedHost.trafficgen  PRR:vector  ETV
attr interpolationmode  none
attr source  count(sinkRcvdPk)/count(sentPk)
attr title  "PRR, vector"
vector 790  Net802154MultiGateway.host[49].wrappedHost.trafficgen  sentPk:vector(packetBytes)  ETV
attr interpolationmode  none
attr source  sentPk
attr title  "packets sent, vector(packetBytes)"
vector 794  Net802154MultiGateway.host[49].wrappedHost.trafficgen  PRR:vector  ETV
attr interpolationmode  none
attr source  count(sinkRcvdPk)/count(sentPk)
attr title  "PRR, vector"
vector 374  Net802154MultiGateway.host[23].wrappedHost.trafficgen  sentPk:vector(packetBytes)  ETV
attr interpolationmode  none
attr source  sentPk
attr title  "packets sent, vector(packetBytes)"
vector 378  Net802154MultiGateway.host[23].wrappedHost.trafficgen  PRR:vector  ETV
attr interpolationmode  none
attr source  count(sinkRcvdPk)/count(sentPk)
attr title  "PRR, vector"
vector 278  Net802154MultiGateway.host[17].wrappedHost.trafficgen  sentPk:vector(packetBytes)  ETV
attr interpolationmode  none
attr source  sentPk
attr title  "packets sent, vector(packetBytes)"
vector 282  Net802154MultiGateway.host[17].wrappedHost.trafficgen  PRR:vector  ETV
attr interpolationmode  none
attr source  count(sinkRcvdPk)/count(sentPk)
attr title  "PRR, vector"
vector 280  Net802154MultiGateway.host[17].wrappedHost.trafficgen  sinkRcvdPk:vector(packetBytes)  ETV
attr interpolationmode  none
attr source  sinkRcvdPk
attr title  "own packets received by sink, vector(packetBytes)"
vector 710  Net802154MultiGateway.host[44].wrappedHost.trafficgen  sentPk:vector(packetBytes)  ETV
attr interpolationmode  none
attr source  sentPk
attr title  "packets sent, vector(packetBytes)"
vector 714  Net802154MultiGateway.host[44].wrappedHost.trafficgen  PRR:vector  ETV
attr interpolationmode  none
attr source  count(sinkRcvdPk)/count(sentPk)
attr title  "PRR, vector"
vector 776  Net802154MultiGateway.host[48].wrappedHost.trafficgen  sinkRcvdPk:vector(packetBytes)  ETV
attr interpolationmode  none
attr source  sinkRcvdPk
attr title  "own packets received by sink, vector(packetBytes)"
vector 792  Net802154MultiGateway.host[49].wrappedHost.trafficgen  sinkRcvdPk:vector(packetBytes)  ETV
attr interpolationmode  none
attr source  sinkRcvdPk
attr title  "own packets received by sink, vector(packetBytes)"
vector 984  Net802154MultiGateway.host[61].wrappedHost.trafficgen  sinkRcvdPk:vector(packetBytes)  ETV
attr interpolationmode  none
attr source  sinkRcvdPk
attr title  "own packets received by sink, vector(packetBytes)"
vector 294  Net802154MultiGateway.host[18].wrappedHost.trafficgen  sentPk:vector(packetBytes)  ETV
attr interpolationmode  none
attr source  sentPk
attr title  "packets sent, vector(packetBytes)"
vector 298  Net802154MultiGateway.host[18].wrappedHost.trafficgen  PRR:vector  ETV
attr interpolationmode  none
attr source  count(sinkRcvdPk)/count(sentPk)
attr title  "PRR, vector"
vector 72  Net802154MultiGateway.host[4].wrappedHost.trafficgen  sinkRcvdPk:vector(packetBytes)  ETV
attr interpolationmode  none
attr source  sinkRcvdPk
attr title  "own packets received by sink, vector(packetBytes)"
vector 104  Net802154MultiGateway.host[6].wrappedHost.trafficgen  sinkRcvdPk:vector(packetBytes)  ETV
attr interpolationmode  none
attr source  sinkRcvdPk
attr title  "own packets received by sink, vector(packetBytes)"
vector 262  Net802154MultiGateway.host[16].wrappedHost.trafficgen  sentPk:vector(packetBytes)  ETV
attr interpolationmode  none
attr source  sentPk
attr title  "packets sent, vector(packetBytes)"
vector 266  Net802154MultiGateway.host[16].wrappedHost.trafficgen  PRR:vector  ETV
attr interpolationmode  none
attr source  count(sinkRcvdPk)/count(sentPk)
attr title  "PRR, vector"
vector 696  Net802154MultiGateway.host[43].wrappedHost.trafficgen  sinkRcvdPk:vector(packetBytes)  ETV
attr interpolationmode  none
attr source  sinkRcvdPk
attr title  "own packets received by sink, vector(packetBytes)"
vector 824  Net802154MultiGateway.host[51].wrappedHost.trafficgen  sinkRcvdPk:vector(packetBytes)  ETV
attr interpolationmode  none
attr source  sinkRcvdPk
attr title  "own packets received by sink, vector(packetBytes)"
vector 438  Net802154MultiGateway.host[27].wrappedHost.trafficgen  sentPk:vector(packetBytes)  ETV
attr interpolationmode  none
attr source  sentPk
attr title  "packets sent, vector(packetBytes)"
vector 442  Net802154MultiGateway.host[27].wrappedHost.trafficgen  PRR:vector  ETV
attr interpolationmode  none
attr source  count(sinkRcvdPk)/count(sentPk)
attr title  "PRR, vector"
vector 328  Net802154MultiGateway.host[20].wrappedHost.trafficgen  sinkRcvdPk:vector(packetBytes)  ETV
attr interpolationmode  none
attr source  sinkRcvdPk
attr title  "own packets received by sink, vector(packetBytes)"
vector 296  Net802154MultiGateway.host[18].wrappedHost.trafficgen  sinkRcvdPk:vector(packetBytes)  ETV
attr interpolationmode  none
attr source  sinkRcvdPk
attr title  "own packets received by sink, vector(packetBytes)"
vector 376  Net802154MultiGateway.host[23].wrappedHost.trafficgen  sinkRcvdPk:vector(packetBytes)  ETV
attr interpolationmode  none
attr source  sinkRcvdPk
attr title  "own packets received by sink, vector(packetBytes)"
vector 742  Net802154MultiGateway.host[46].wrappedHost.trafficgen  sentPk:vector(packetBytes)  ETV
attr interpolationmode  none
attr source  sentPk
attr title  "packets sent, vector(packetBytes)"
vector 746  Net802154MultiGateway.host[46].wrappedHost.trafficgen  PRR:vector  ETV
attr interpolationmode  none
attr source  count(sinkRcvdPk)/count(sentPk)
attr title  "PRR, vector"
vector 744  Net802154MultiGateway.host[46].wrappedHost.trafficgen  sinkRcvdPk:vector(packetBytes)  ETV
attr interpolationmode  none
attr source  sinkRcvdPk
attr title  "own packets received by sink, vector(packetBytes)"
vector 54  Net802154MultiGateway.host[3].wrappedHost.trafficgen  sentPk:vector(packetBytes)  ETV
attr interpolationmode  none
attr source  sentPk
attr title  "packets sent, vector(packetBytes)"
vector 58  Net802154MultiGateway.host[3].wrappedHost.trafficgen  PRR:vector  ETV
attr interpolationmode  none
attr source  count(sinkRcvdPk)/count(sentPk)
attr title  "PRR, vector"
vector 758  Net802154MultiGateway.host[47].wrappedHost.trafficgen  sentPk:vector(packetBytes)  ETV
attr interpolationmode  none
attr source  sentPk
attr title  "packets sent, vector(packetBytes)"
vector 762  Net802154MultiGateway.host[47].wrappedHost.trafficgen  PRR:vector  ETV
attr interpolationmode  none
attr source  count(sinkRcvdPk)/count(sentPk)
attr title  "PRR, vector"
vector 264  Net802154MultiGateway.host[16].wrappedHost.trafficgen  sinkRcvdPk:vector(packetBytes)  ETV
attr interpolationmode  none
attr source  sinkRcvdPk
attr title  "own packets received by sink, vector(packetBytes)"
vector 584  Net802154MultiGateway.host[36].wrappedHost.trafficgen  sinkRcvdPk:vector(packetBytes)  ETV
attr interpolationmode  none
attr source  sinkRcvdPk
attr title  "own packets received by sink, vector(packetBytes)"
vector 440  Net802154MultiGateway.host[27].wrappedHost.trafficgen  sinkRcvdPk:vector(packetBytes)  ETV
attr interpolationmode  none
attr source  sinkRcvdPk
attr title  "own packets received by sink, vector(packetBytes)"
vector 886  Net802154MultiGateway.host[55].wrappedHost.trafficgen  sentPk:vector(packetBytes)  ETV
attr interpolationmode  none
attr source  sentPk
attr title  "packets sent, vector(packetBytes)"
vector 890  Net802154MultiGateway.host[55].wrappedHost.trafficgen  PRR:vector  ETV
attr interpolationmode  none
attr source  count(sinkRcvdPk)/count(sentPk)
attr title  "PRR, vector"
vector 422  Net802154MultiGateway.host[26].wrappedHost.trafficgen  sentPk:vector(packetBytes)  ETV
attr interpolationmode  none
attr source  sentPk
attr title  "packets sent, vector(packetBytes)"
vector 426  Net802154MultiGateway.host[26].wrappedHost.trafficgen  PRR:vector  ETV
attr interpolationmode  none
attr source  count(sinkRcvdPk)/count(sentPk)
attr title  "PRR, vector"
vector 934  Net802154MultiGateway.host[58].wrappedHost.trafficgen  sentPk:vector(packetBytes)  ETV
attr interpolationmode  none
attr source  sentPk
attr title  "packets sent, vector(packetBytes)"
vector 938  Net802154MultiGateway.host[58].wrappedHost.trafficgen  PRR:vector  ETV
attr interpolationmode  none
attr source  count(sinkRcvdPk)/count(sentPk)
attr title  "PRR, vector"
vector 936  Net802154MultiGateway.host[58].wrappedHost.trafficgen  sinkRcvdPk:vector(packetBytes)  ETV
attr interpolationmode  none
attr source  sinkRcvdPk
attr title  "own packets received by sink, vector(packetBytes)"
vector 760  Net802154MultiGateway.host[47].wrappedHost.trafficgen  sinkRcvdPk:vector(packetBytes)  ETV
attr interpolationmode  none
attr source  sinkRcvdPk
attr title  "own packets received by sink, vector(packetBytes)"
vector 502  Net802154MultiGateway.host[31].wrappedHost.trafficgen  sentPk:vector(packetBytes)  ETV
attr interpolationmode  none
attr source  sentPk
attr title  "packets sent, vector(packetBytes)"
vector 506  Net802154MultiGateway.host[31].wrappedHost.trafficgen  PRR:vector  ETV
attr interpolationmode  none
attr source  count(sinkRcvdPk)/count(sentPk)
attr title  "PRR, vector"
vector 230  Net802154MultiGateway.host[14].wrappedHost.trafficgen  sentPk:vector(packetBytes)  ETV
attr interpolationmode  none
attr source  sentPk
attr title  "packets sent, vector(packetBytes)"
vector 234  Net802154MultiGateway.host[14].wrappedHost.trafficgen  PRR:vector  ETV
attr interpolationmode  none
attr source  count(sinkRcvdPk)/count(sentPk)
attr title  "PRR, vector"
vector 598  Net802154MultiGateway.host[37].wrappedHost.trafficgen  sentPk:vector(packetBytes)  ETV
attr interpolationmode  none
attr source  sentPk
attr title  "packets sent, vector(packetBytes)"
vector 602  Net802154MultiGateway.host[37].wrappedHost.trafficgen  PRR:vector  ETV
attr interpolationmode  none
attr source  count(sinkRcvdPk)/count(sentPk)
attr title  "PRR, vector"
vector 232  Net802154MultiGateway.host[14].wrappedHost.trafficgen  sinkRcvdPk:vector(packetBytes)  ETV
attr interpolationmode  none
attr source  sinkRcvdPk
attr title  "own packets received by sink, vector(packetBytes)"
vector 902  Net802154MultiGateway.host[56].wrappedHost.trafficgen  sentPk:vector(packetBytes)  ETV
attr interpolationmode  none
attr source  sentPk
attr title  "packets sent, vector(packetBytes)"
vector 906  Net802154MultiGateway.host[56].wrappedHost.trafficgen  PRR:vector  ETV
attr interpolationmode  none
attr source  count(sinkRcvdPk)/count(sentPk)
attr title  "PRR, vector"
vector 86  Net802154MultiGateway.host[5].wrappedHost.trafficgen  sentPk:vector(packetBytes)  ETV
attr interpolationmode  none
attr source  sentPk
attr title  "packets sent, vector(packetBytes)"
vector 90  Net802154MultiGateway.host[5].wrappedHost.trafficgen  PRR:vector  ETV
attr interpolationmode  none
attr source  count(sinkRcvdPk)/count(sentPk)
attr title  "PRR, vector"
vector 504  Net802154MultiGateway.host[31].wrappedHost.trafficgen  sinkRcvdPk:vector(packetBytes)  ETV
attr interpolationmode  none
attr source  sinkRcvdPk
attr title  "own packets received by sink, vector(packetBytes)"
vector 888  Net802154MultiGateway.host[55].wrappedHost.trafficgen  sinkRcvdPk:vector(packetBytes)  ETV
attr interpolationmode  none
attr source  sinkRcvdPk
attr title  "own packets received by sink, vector(packetBytes)"
vector 408  Net802154MultiGateway.host[25].wrappedHost.trafficgen  sinkRcvdPk:vector(packetBytes)  ETV
attr interpolationmode  none
attr source  sinkRcvdPk
attr title  "own packets received by sink, vector(packetBytes)"
vector 870  Net802154MultiGateway.host[54].wrappedHost.trafficgen  sentPk:vector(packetBytes)  ETV
attr interpolationmode  none
attr source  sentPk
attr title  "packets sent, vector(packetBytes)"
vector 874  Net802154MultiGateway.host[54].wrappedHost.trafficgen  PRR:vector  ETV
attr interpolationmode  none
attr source  count(sinkRcvdPk)/count(sentPk)
attr title  "PRR, vector"
vector 486  Net802154MultiGateway.host[30].wrappedHost.trafficgen  sentPk:vector(packetBytes)  ETV
attr interpolationmode  none
attr source  sentPk
attr title  "packets sent, vector(packetBytes)"
vector 490  Net802154MultiGateway.host[30].wrappedHost.trafficgen  PRR:vector  ETV
attr interpolationmode  none
attr source  count(sinkRcvdPk)/count(sentPk)
attr title  "PRR, vector"
vector 342  Net802154MultiGateway.host[21].wrappedHost.trafficgen  sentPk:vector(packetBytes)  ETV
attr interpolationmode  none
attr source  sentPk
attr title  "packets sent, vector(packetBytes)"
vector 346  Net802154MultiGateway.host[21].wrappedHost.trafficgen  PRR:vector  ETV
attr interpolationmode  none
attr source  count(sinkRcvdPk)/count(sentPk)
attr title  "PRR, vector"
vector 518  Net802154MultiGateway.host[32].wrappedHost.trafficgen  sentPk:vector(packetBytes)  ETV
attr interpolationmode  none
attr source  sentPk
attr title  "packets sent, vector(packetBytes)"
vector 522  Net802154MultiGateway.host[32].wrappedHost.trafficgen  PRR:vector  ETV
attr interpolationmode  none
attr source  count(sinkRcvdPk)/count(sentPk)
attr title  "PRR, vector"
vector 358  Net802154MultiGateway.host[22].wrappedHost.trafficgen  sentPk:vector(packetBytes)  ETV
attr interpolationmode  none
attr source  sentPk
attr title  "packets sent, vector(packetBytes)"
vector 362  Net802154MultiGateway.host[22].wrappedHost.trafficgen  PRR:vector  ETV
attr interpolationmode  none
attr source  count(sinkRcvdPk)/count(sentPk)
attr title  "PRR, vector"
vector 310  Net802154MultiGateway.host[19].wrappedHost.trafficgen  sentPk:vector(packetBytes)  ETV
attr interpolationmode  none
attr source  sentPk
attr title  "packets sent, vector(packetBytes)"
vector 314  Net802154MultiGateway.host[19].wrappedHost.trafficgen  PRR:vector  ETV
attr interpolationmode  none
attr source  count(sinkRcvdPk)/count(sentPk)
attr title  "PRR, vector"
vector 600  Net802154MultiGateway.host[37].wrappedHost.trafficgen  sinkRcvdPk:vector(packetBytes)  ETV
attr interpolationmode  none
attr source  sinkRcvdPk
attr title  "own packets received by sink, vector(packetBytes)"
vector 872  Net802154MultiGateway.host[54].wrappedHost.trafficgen  sinkRcvdPk:vector(packetBytes)  ETV
attr interpolationmode  none
attr source  sinkRcvdPk
attr title  "own packets received by sink, vector(packetBytes)"
vector 88  Net802154MultiGateway.host[5].wrappedHost.trafficgen  sinkRcvdPk:vector(packetBytes)  ETV
attr interpolationmode  none
attr source  sinkRcvdPk
attr title  "own packets received by sink, vector(packetBytes)"
vector 392  Net802154MultiGateway.host[24].wrappedHost.trafficgen  sinkRcvdPk:vector(packetBytes)  ETV
attr interpolationmode  none
attr source  sinkRcvdPk
attr title  "own packets received by sink, vector(packetBytes)"
vector 904  Net802154MultiGateway.host[56].wrappedHost.trafficgen  sinkRcvdPk:vector(packetBytes)  ETV
attr interpolationmode  none
attr source  sinkRcvdPk
attr title  "own packets received by sink, vector(packetBytes)"
vector 360  Net802154MultiGateway.host[22].wrappedHost.trafficgen  sinkRcvdPk:vector(packetBytes)  ETV
attr interpolationmode  none
attr source  sinkRcvdPk
attr title  "own packets received by sink, vector(packetBytes)"
vector 488  Net802154MultiGateway.host[30].wrappedHost.trafficgen  sinkRcvdPk:vector(packetBytes)  ETV
attr interpolationmode  none
attr source  sinkRcvdPk
attr title  "own packets received by sink, vector(packetBytes)"
vector 312  Net802154MultiGateway.host[19].wrappedHost.trafficgen  sinkRcvdPk:vector(packetBytes)  ETV
attr interpolationmode  none
attr source  sinkRcvdPk
attr title  "own packets received by sink, vector(packetBytes)"
vector 646  Net802154MultiGateway.host[40].wrappedHost.trafficgen  sentPk:vector(packetBytes)  ETV
attr interpolationmode  none
attr source  sentPk
attr title  "packets sent, vector(packetBytes)"
vector 650  Net802154MultiGateway.host[40].wrappedHost.trafficgen  PRR:vector  ETV
attr interpolationmode  none
attr source  count(sinkRcvdPk)/count(sentPk)
attr title  "PRR, vector"
vector 344  Net802154MultiGateway.host[21].wrappedHost.trafficgen  sinkRcvdPk:vector(packetBytes)  ETV
attr interpolationmode  none
attr source  sinkRcvdPk
attr title  "own packets received by sink, vector(packetBytes)"
vector 520  Net802154MultiGateway.host[32].wrappedHost.trafficgen  sinkRcvdPk:vector(packetBytes)  ETV
attr interpolationmode  none
attr source  sinkRcvdPk
attr title  "own packets received by sink, vector(packetBytes)"
vector 56  Net802154MultiGateway.host[3].wrappedHost.trafficgen  sinkRcvdPk:vector(packetBytes)  ETV
attr interpolationmode  none
attr source  sinkRcvdPk
attr title  "own packets received by sink, vector(packetBytes)"
vector 454  Net802154MultiGateway.host[28].wrappedHost.trafficgen  sentPk:vector(packetBytes)  ETV
attr interpolationmode  none
attr source  sentPk
attr title  "packets sent, vector(packetBytes)"
vector 458  Net802154MultiGateway.host[28].wrappedHost.trafficgen  PRR:vector  ETV
attr interpolationmode  none
attr source  count(sinkRcvdPk)/count(sentPk)
attr title  "PRR, vector"
vector 712  Net802154MultiGateway.host[44].wrappedHost.trafficgen  sinkRcvdPk:vector(packetBytes)  ETV
attr interpolationmode  none
attr source  sinkRcvdPk
attr title  "own packets received by sink, vector(packetBytes)"
vector 456  Net802154MultiGateway.host[28].wrappedHost.trafficgen  sinkRcvdPk:vector(packetBytes)  ETV
attr interpolationmode  none
attr source  sinkRcvdPk
attr title  "own packets received by sink, vector(packetBytes)"
vector 424  Net802154MultiGateway.host[26].wrappedHost.trafficgen  sinkRcvdPk:vector(packetBytes)  ETV
attr interpolationmode  none
attr source  sinkRcvdPk
attr title  "own packets received by sink, vector(packetBytes)"
vector 950  Net802154MultiGateway.host[59].wrappedHost.trafficgen  sentPk:vector(packetBytes)  ETV
attr interpolationmode  none
attr source  sentPk
attr title  "packets sent, vector(packetBytes)"
vector 954  Net802154MultiGateway.host[59].wrappedHost.trafficgen  PRR:vector  ETV
attr interpolationmode  none
attr source  count(sinkRcvdPk)/count(sentPk)
attr title  "PRR, vector"
vector 648  Net802154MultiGateway.host[40].wrappedHost.trafficgen  sinkRcvdPk:vector(packetBytes)  ETV
attr interpolationmode  none
attr source  sinkRcvdPk
attr title  "own packets received by sink, vector(packetBytes)"
vector 952  Net802154MultiGateway.host[59].wrappedHost.trafficgen  sinkRcvdPk:vector(packetBytes)  ETV
attr interpolationmode  none
attr source  sinkRcvdPk
attr title  "own packets received by sink, vector(packetBytes)"
vector 38  Net802154MultiGateway.host[2].wrappedHost.trafficgen  sentPk:vector(packetBytes)  ETV
attr interpolationmode  none
attr source  sentPk
attr title  "packets sent, vector(packetBytes)"
vector 42  Net802154MultiGateway.host[2].wrappedHost.trafficgen  PRR:vector  ETV
attr interpolationmode  none
attr source  count(sinkRcvdPk)/count(sentPk)
attr title  "PRR, vector"
vector 40  Net802154MultiGateway.host[2].wrappedHost.trafficgen  sinkRcvdPk:vector(packetBytes)  ETV
attr interpolationmode  none
attr source  sinkRcvdPk
attr title  "own packets received by sink, vector(packetBytes)"
vector 166  Net802154MultiGateway.host[10].wrappedHost.trafficgen  sentPk:vector(packetBytes)  ETV
attr interpolationmode  none
attr source  sentPk
[...]
345	1268505 3844 16142 10074064 1 448.839410631658 123 76 76 9348 710448
346	1272349 8249 3629723 7963373 164.31223028127 356.716992266851 199 0.5 1 -nan -nan
350	1280598 10622 403097 10102002 21.47328 450.07104 416 120 120 49920 5990400
351	1291220 1094 419832 9945150 22.15136 443.11872 43 29 29 1247 36163
358	1292314 3183 3632977 8224178 164.465585080493 368.195130995087 100 76 76 7600 577600
360	1295497 3200 3642769 8232019 164.901312266851 368.513472266851 100 76 76 7600 577600
361	1298697 4067 16143 10074514 1 448.855959448778 131 76 76 9956 756656
362	1302764 8351 3632977 8232019 164.465585080493 368.513472266851 200 0.33333333333333 1 -nan -nan
366	1311115 5704 330077 10079339 18.50112 449.08032 224 120 120 26880 3225600
367	1316819 1091 451695 9924431 23.407936 442.188048 43 29 29 1247 36163
374	1317910 3189 3590730 8383440 162.492555147962 375.186319432432 100 76 76 7600 577600
376	1321099 3168 3600655 8384856 162.935232266851 375.241152266851 99 76 76 7524 571824
377	1324267 4282 16144 10102277 1 450.07876694187 137 76 76 10412 791312
378	1328549 8197 3590730 8384856 162.492555147962 375.241152266851 199 0.25 1 -nan -nan
382	1336746 5948 392497 10110423 21.0816 450.432 233 120 120 27960 3355200
383	1342694 1119 467586 10118459 24.009264 450.77816 44 29 29 1276 37004
390	1343813 3180 3572256 8620856 161.633621714977 385.785233095017 100 76 76 7600 577600
392	1346993 3200 3636053 8847602 164.609472266851 395.132352266851 100 76 76 7600 577600
393	1350193 3462 16145 10058635 1 448.133606767101 112 76 76 8512 646912
394	1353655 7852 3572256 8847602 161.633621714977 395.132352266851 200 0.33333333333333 1 -nan -nan
398	1361507 11024 354845 10101745 19.61472 450.06336 432 120 120 51840 6220800
399	1372531 1103 407094 9935135 21.634768 442.662064 43 29 29 1247 36163
406	1373634 3187 3558976 7861879 161.055015344055 352.311167548645 100 76 76 7600 577600
408	1376821 3200 3625725 7921836 164.117952266851 354.827712266851 100 76 76 7600 577600
409	1380021 3141 16146 10118740 1 450.788831218944 101 76 76 7676 583376
410	1383162 7775 3558976 7921836 161.055015344055 354.827712266851 200 0.33333333333333 1 -nan -nan
414	1390937 4982 306270 10110233 17.3952 450.42432 195 120 120 23400 2808000
415	1395919 1099 488102 9920884 24.849296 442.048896 43 29 29 1247 36163
422	1397018 3193 3606393 8048302 163.191548319174 360.528927606985 100 76 76 7600 577600
424	1400211 3200 3678668 8134222 166.575552266851 364.166592266851 100 76 76 7600 577600
425	1403411 3516 16147 10107858 1 450.314476265587 113 76 76 8588 652688
426	1406927 7951 3606393 8134222 163.191548319174 364.166592266851 200 0.16666666666667 1 -nan -nan
430	1414878 5241 399566 10110418 21.33504 450.432 206 120 120 24720 2966400
431	1420119 1091 457518 9908937 23.63536 441.52152 43 29 29 1247 36163
438	1421210 3187 3598316 8492035 162.824746934439 380.198779982823 100 76 76 7600 577600
440	1424397 3200 3606148 8542011 163.180992266851 382.398912266851 100 76 76 7600 577600
441	1427597 3667 16148 10056788 1 448.044508457086 118 76 76 8968 681568
442	1431264 8238 3598316 8542011 162.824746934439 382.398912266851 200 0.5 1 -nan -nan
446	1439502 10606 386517 10085265 20.83584 449.32608 417 120 120 50040 6004800
447	1450108 1097 401018 9969937 21.394736 444.264848 43 29 29 1247 36163
454	1451205 3189 3667226 9126724 166.054008020069 406.792193636543 100 76 76 7600 577600
456	1454394 3200 3669164 9131465 166.130112266851 406.974912266851 100 76 76 7600 577600
457	1457594 3447 16149 10047160 1 447.634764063518 111 76 76 8436 641136
458	1461041 8016 3667226 9131465 166.054008020069 406.974912266851 200 0.5 1 -nan -nan
462	1469057 5258 363748 10049210 19.97568 447.72096 207 120 120 24840 2980800
463	1474315 1095 384909 9900056 20.78088 441.159472 43 29 29 1247 36163
470	1475410 3191 3718255 7706820 168.41516323987 345.792440739931 100 76 76 7600 577600
472	1478601 3200 3732713 7725251 169.079232266851 346.517952266851 100 76 76 7600 577600
473	1481801 4018 16150 9963679 1 443.949849910584 129 76 76 9804 745104
474	1485819 8078 3718255 7725251 168.41516323987 346.517952266851 200 0.5 1 -nan -nan
478	1493897 11164 332408 10115553 18.624 450.67008 437 120 120 52440 6292800
479	1505061 1100 464011 9887012 23.891632 440.575056 43 29 29 1247 36163
486	1506161 3187 3627341 8152981 164.186258617729 364.951439250944 100 76 76 7600 577600
488	1509348 3200 3645676 8194158 165.024192266851 366.777792266851 100 76 76 7600 577600
489	1512548 3893 16151 10049976 1 447.740807358986 125 76 76 9500 722000
490	1516441 8017 3627341 8194158 164.186258617729 366.777792266851 200 0.5 1 -nan -nan
494	1524458 5513 360511 10060363 19.8528 448.21248 216 120 120 25920 3110400
495	1529971 1119 395272 10101026 21.189264 450.025312 44 29 29 1276 37004
502	1531090 3187 3618461 8626834 163.77300329155 386.047206210428 100 76 76 7600 577600
504	1534277 3200 3624064 8772202 164.033472533703 392.098752533703 100 76 76 7600 577600
505	1537477 3160 16152 10038208 1 447.206151061051 102 76 76 7752 589152
506	1540637 8075 3618461 8772202 163.77300329155 392.098752533703 200 0.5 1 -nan -nan
510	1548712 4914 367856 10044092 20.11392 447.49056 193 120 120 23160 2779200
511	1553626 1097 398220 9945725 21.281856 443.1508 43 29 29 1247 36163
518	1554723 3191 3631874 8139102 164.405700433824 364.357104708881 100 76 76 7600 577600
520	1557914 3200 3655898 8172745 165.515712266851 365.794752266851 100 76 76 7600 577600
521	1561114 3362 16153 10112693 1 450.531837180824 108 76 76 8208 623808
522	1564476 7986 3631874 8172745 164.405700433824 365.794752266851 200 0.25 1 -nan -nan
526	1572462 10592 367435 10116148 20.10624 450.68544 415 120 120 49800 5976000
527	1583054 1096 371884 9932491 20.298064 442.52384 43 29 29 1247 36163
534	1584150 3190 3573978 8205932 161.706552127719 367.3308121523 100 76 76 7600 577600
536	1587340 3200 3586452 8243169 162.282432266851 368.966592266851 100 76 76 7600 577600
537	1590540 3497 16154 10111725 1 450.479874626753 113 76 76 8588 652688
538	1594037 8015 3573978 8243169 161.706552127719 368.966592266851 200 0.5 1 -nan -nan
542	1602052 5238 360552 10113432 19.8528 450.56256 206 120 120 24720 2966400
543	1607290 1095 402122 9894712 21.428944 440.902736 43 29 29 1247 36163
550	1608385 3196 3566237 7873628 161.369987753473 352.781479892099 100 76 76 7600 577600
552	1611581 3200 3570284 7940642 161.545152266851 355.695552266851 100 76 76 7600 577600
553	1614781 4036 16155 10009348 1 445.993822400762 130 76 76 9880 750880
554	1618817 8029 3566237 7940642 161.369987753473 355.695552266851 200 0.33333333333333 1 -nan -nan
558	1626846 5606 306484 10035729 17.40288 447.10656 220 120 120 26400 3168000
559	1632452 1088 441165 9977830 23.010944 444.606464 43 29 29 1247 36163
566	1633540 3186 3560105 8146405 161.101161710421 364.682969711642 100 76 76 7600 577600
568	1636726 3200 3575813 8166228 161.790912266851 365.525952266851 100 76 76 7600 577600
569	1639926 3461 16156 10101224 1 450.032682212948 111 76 76 8436 641136
570	1643387 7977 3560105 8166228 161.101161710421 365.525952266851 200 0.5 1 -nan -nan
574	1651364 10373 317484 10119180 17.90208 450.80064 406 120 120 48720 5846400
575	1661737 1092 419503 9942404 22.140448 443.001712 43 29 29 1247 36163
582	1662829 3192 3587319 7368030 162.318189090996 331.655603585588 100 76 76 7600 577600
584	1666021 2880 3605942 7492733 163.173312266851 336.917952266851 90 76 76 6840 519840
585	1668901 5001 16157 10062653 1 448.314713435699 160 76 76 12160 924160
586	1673902 7752 3587319 7492733 162.318189090996 336.917952266851 190 0.33333333333333 1 -nan -nan
590	1681654 12093 382812 10068189 20.71296 448.58112 473 120 120 56760 6811200
591	1693747 1101 375910 9881072 20.445008 440.31112 43 29 29 1247 36163
598	1694848 3190 3620832 8633178 163.886064886966 386.305266404771 100 76 76 7600 577600
600	1698038 3200 3634189 8652709 164.517312533703 387.175872533703 100 76 76 7600 577600
601	1701238 2819 16158 10062526 1 448.307507939339 91 76 76 6916 525616
602	1704057 7856 3620832 8652709 163.886064886966 387.175872533703 200 0.5 1 -nan -nan
606	1711913 4618 408347 10063078 21.696 448.33536 181 120 120 21720 2606400
607	1716531 1119 423121 10112463 22.275472 450.522832 44 29 29 1276 37004
614	1717650 3188 3567947 8325798 161.431760192751 372.620420132096 100 76 76 7600 577600
616	1720838 3008 3589586 8334954 162.428352266851 373.044672266851 94 76 76 7144 542944
617	1723846 3668 16159 10089607 1 449.50723263504 118 76 76 8968 681568
618	1727514 8142 3567947 8334954 161.431760192751 373.044672266851 194 0.33333333333333 1 -nan -nan
622	1735656 5303 370265 10098727 20.22912 449.9328 208 120 120 24960 2995200
623	1740959 1099 470109 9889214 24.111456 440.659536 43 29 29 1247 36163
630	1742058 3190 3572383 7761262 161.647604333077 348.048623676386 100 76 76 7600 577600
632	1745248 3200 3580536 7788965 162.028992533703 349.182912533703 100 76 76 7600 577600
633	1748448 4099 16160 10106623 1 450.261696180247 131 76 76 9956 756656
634	1752547 7947 3572383 7788965 161.647604333077 349.182912533703 200 0.5 1 -nan -nan
638	1760494 5751 379182 10115545 20.59008 450.67008 225 120 120 27000 3240000
639	1766245 1093 454227 9929638 23.506688 442.418608 43 29 29 1247 36163
646	1767338 3182 3648236 8443363 165.144319753677 377.936048793156 100 76 76 7600 577600
648	1770520 3200 3681910 8454425 166.729152266851 378.428352266851 100 76 76 7600 577600
649	1773720 3518 16161 10119630 1 450.821559268836 113 76 76 8588 652688
650	1777238 8210 3648236 8454425 165.144319753677 378.428352266851 200 0.5 1 -nan -nan
654	1785448 5204 357427 10101539 19.72992 450.05568 204 120 120 24480 2937600
655	1790652 1093 425876 9948844 22.3764 443.291856 43 29 29 1247 36163
662	1791745 3183 3573439 7343842 161.681963189924 330.706166597517 100 76 76 7600 577600
664	1794928 3200 3576448 7351196 161.821632533703 330.988992533703 100 76 76 7600 577600
665	1798128 4322 16162 10110124 1 450.422107662183 138 76 76 10488 797088
666	1802450 7925 3573439 7351196 161.681963189924 330.988992533703 200 0.5 1 -nan -nan
670	1810375 5962 383166 10112972 20.72064 450.5472 233 120 120 27960 3355200
671	1816337 1123 380967 10115405 20.653232 450.666208 44 29 29 1276 37004
678	1817460 3190 3562715 7999729 161.22178563782 358.311893465735 100 76 76 7600 577600
680	1820650 3200 3565177 8002604 161.330112533703 358.429632533703 100 76 76 7600 577600
681	1823850 4725 16163 10110513 1 450.433912989838 152 76 76 11552 877952
682	1828575 7797 3562715 8002604 161.22178563782 358.429632533703 200 0.5 1 -nan -nan
686	1836372 6199 324796 10118831 18.25536 450.79296 244 120 120 29280 3513600
687	1842571 1095 472250 9965277 24.223536 444.026912 43 29 29 1247 36163
694	1843666 3194 3582115 8030740 162.088072979798 359.761822720502 100 76 76 7600 577600
696	1846860 3200 3597457 8045217 162.789312533703 360.380352533703 100 76 76 7600 577600
697	1850060 3468 16164 10113745 1 450.574671036324 111 76 76 8436 641136
698	1853528 8017 3582115 8045217 162.088072979798 360.380352533703 200 0.5 1 -nan -nan
702	1861545 5221 479981 10032489 24.52224 446.98368 204 120 120 24480 2937600
703	1866766 1100 473204 9878896 24.273104 440.218464 43 29 29 1247 36163
710	1867866 3193 3592718 7672864 162.574678558908 344.346031760178 100 76 76 7600 577600
712	1871059 3200 3667816 7699957 166.084032266851 345.519552266851 100 76 76 7600 577600
713	1874259 4408 16165 10071788 1 448.738678864144 141 76 76 10716 814416
714	1878667 8093 3592718 7699957 162.574678558908 345.519552266851 200 0.33333333333333 1 -nan -nan
718	1886760 5902 489306 10090705 24.89088 449.56416 231 120 120 27720 3326400
719	1892662 1123 467907 10107001 24.024736 450.279888 44 29 29 1276 37004
726	1893785 3193 3573183 7987919 161.670777401591 357.806179837053 100 76 76 7600 577600
728	1896978 3200 3580991 8061296 162.044352533703 361.109952533703 100 76 76 7600 577600
729	1900178 4285 16166 10080685 1 449.126632378715 137 76 76 10412 791312
730	1904463 8004 3573183 8061296 161.670777401591 361.109952533703 200 0.5 1 -nan -nan
734	1912467 5835 579583 10090968 28.83072 449.57184 228 120 120 27360 3283200
735	1918302 1100 691592 10117938 33.592768 450.76656 43 29 29 1247 36163
742	1919402 3188 3601954 8389180 162.998600586295 375.450629042577 100 76 76 7600 577600
744	1922590 3200 3602760 8423983 163.027392533703 377.068992533703 100 76 76 7600 577600
745	1925790 3916 16167 10068840 1 448.603549546358 126 76 76 9576 727776
746	1929706 7852 3601954 8423983 162.998600586295 377.068992533703 200 0.5 1 -nan -nan
750	1937558 5388 499775 10079031 25.3824 449.07264 211 120 120 25320 3038400
751	1942946 1091 411127 9957024 21.805104 443.648304 43 29 29 1247 36163
758	1944037 3192 3603863 8143844 163.085647299351 364.56525372614 100 76 76 7600 577600
760	1947229 3200 3615557 8194520 163.634112533703 366.793152533703 100 76 76 7600 577600
761	1950429 4025 16168 10115029 1 450.639542964934 129 76 76 9804 745104
762	1954454 7856 3603863 8194520 163.085647299351 366.793152533703 200 0.5 1 -nan -nan
766	1962310 5602 529265 10118837 26.6112 450.79296 220 120 120 26400 3168000
767	1967912 1095 369511 9972097 20.192224 444.364176 43 29 29 1247 36163
774	1969007 3193 3574107 8626499 161.710611794805 386.035159425288 100 76 76 7600 577600
776	1972200 3200 3594443 8668848 162.651072533703 387.928512533703 100 76 76 7600 577600
777	1975400 3721 16169 10116749 1 450.710104313988 120 76 76 9120 693120
778	1979121 8021 3574107 8668848 161.710611794805 387.928512533703 200 0.5 1 -nan -nan
782	1987142 5365 322442 10079030 18.13248 449.07264 211 120 120 25320 3038400
783	1992507 1100 461003 9980931 23.764592 444.752576 43 29 29 1247 36163
790	1993607 3185 3590428 8036289 162.471584734557 360.003338344282 100 76 76 7600 577600
792	1996792 3200 3594958 8042582 162.666432533703 360.257472533703 100 76 76 7600 577600
793	1999992 3755 16170 10094599 1 449.737960495498 121 76 76 9196 698896
794	2003747 7770 3590428 8042582 162.471584734557 360.257472533703 200 0.5 1 -nan -nan
798	2011517 5408 332753 10104867 18.63168 450.18624 212 120 120 25440 3052800
799	2016925 1100 416883 9964353 22.018016 443.978288 43 29 29 1247 36163
806	2018025 3189 3567251 7895301 161.407826797722 353.718414659805 100 76 76 7600 577600
808	2021214 3200 3567899 7944364 161.429952533703 355.833792533703 100 76 76 7600 577600
809	2024414 3801 16171 10108477 1 450.34339408286 122 76 76 9272 704672
810	2028215 7966 3567251 7944364 161.407826797722 355.833792533703 200 0.5 1 -nan -nan
814	2036181 5480 532352 10110398 26.74176 450.432 215 120 120 25800 3096000
815	2041661 1103 366033 9884383 20.047872 440.458736 43 29 29 1247 36163
822	2042764 3191 3580506 7438644 162.028596794162 334.597026063022 100 76 76 7600 577600
824	2045955 3200 3597680 7458810 162.796992533703 335.435712533703 100 76 76 7600 577600
825	2049155 4029 16172 10102611 1 450.095761967337 129 76 76 9804 745104
826	2053184 7996 3580506 7458810 162.028596794162 335.435712533703 200 0.5 1 -nan -nan
830	2061180 5660 354892 10110399 19.61472 450.432 222 120 120 26640 3196800
831	2066840 1098 463712 9980919 23.875744 444.752384 43 29 29 1247 36163
838	2067938 3191 3579307 7660627 161.966130253439 343.881678113428 100 76 76 7600 577600
840	2071129 3200 3589385 7671064 162.420672533703 344.283072533703 100 76 76 7600 577600
841	2074329 4048 16173 10041732 1 447.366017183815 130 76 76 9880 750880
842	2078377 7935 3579307 7671064 161.966130253439 344.283072533703 200 0.5 1 -nan -nan
846	2086312 5634 412284 10055482 21.83424 447.98208 221 120 120 26520 3182400
847	2091946 1095 429850 9900373 22.528928 441.17168 43 29 29 1247 36163
854	2093041 3187 3558722 8708115 161.044853085195 389.54647805119 100 76 76 7600 577600
856	2096228 3200 3565380 8857741 161.337792533703 395.539392533703 100 76 76 7600 577600
857	2099428 3754 16174 10074511 1 448.855246058442 121 76 76 9196 698896
858	2103182 8025 3558722 8857741 161.044853085195 395.539392533703 200 0.5 1 -nan -nan
862	2111207 5460 421028 10085290 22.18752 449.32608 215 120 120 25800 3096000
863	2116667 1098 411182 9889602 21.807744 440.673232 43 29 29 1247 36163
870	2117765 3189 3626167 7754474 164.133312650922 347.738305796923 100 76 76 7600 577600
872	2120954 3200 3634391 7792620 164.524992533703 349.336512533703 100 76 76 7600 577600
873	2124154 4313 16175 10043181 1 447.439902685465 138 76 76 10488 797088
874	2128467 8228 3626167 7792620 164.133312650922 349.336512533703 200 0.5 1 -nan -nan
878	2136695 5879 421027 10052066 22.18752 447.84384 231 120 120 27720 3326400
879	2142574 1099 381285 9969581 20.658784 444.248768 43 29 29 1247 36163
886	2143673 3186 3606388 8395055 163.190249236528 375.723350743288 100 76 76 7600 577600
888	2146859 3200 3624258 8446091 164.041152266851 378.052032266851 100 76 76 7600 577600
889	2150059 4021 16176 10047804 1 447.658030019814 129 76 76 9804 745104
890	2154080 8187 3606388 8446091 163.190249236528 378.052032266851 200 0.5 1 -nan -nan
894	2162267 5531 363706 10049219 19.97568 447.72096 216 120 120 25920 3110400
895	2167798 1097 472904 9985779 24.253488 444.97744 43 29 29 1247 36163
902	2168895 3185 3623652 8277979 164.010119553706 370.46585845794 100 76 76 7600 577600
904	2172080 3200 3636596 8294455 164.624832533703 371.186112533703 100 76 76 7600 577600
905	2175280 3510 16177 10080338 1 449.117522114971 113 76 76 8588 652688
906	2178790 7774 3623652 8294455 164.010119553706 371.186112533703 200 0.5 1 -nan -nan
910	2186564 5219 335300 10084836 18.74688 449.3184 205 120 120 24600 2952000
911	2191783 1132 388363 10103917 20.904752 450.15264 44 29 29 1276 37004
918	2192915 3194 3730615 8132167 168.984394980033 364.064775670749 100 76 76 7600 577600
920	2196109 3200 3739957 8143624 169.424832533703 364.558272533703 100 76 76 7600 577600
921	2199309 3903 16178 10093077 1 449.666331291344 125 76 76 9500 722000
922	2203212 7942 3730615 8143624 168.984394980033 364.558272533703 200 0.5 1 -nan -nan
926	2211154 5580 343043 10098746 19.11552 449.9328 219 120 120 26280 3153600
927	2216734 1090 450791 9886381 23.3812 440.54472 43 29 29 1247 36163
934	2217824 3184 3609083 7871111 163.339711972902 352.688083918015 100 76 76 7600 577600
936	2221008 3200 3613202 7884090 163.526592533703 353.253312533703 100 76 76 7600 577600
937	2224208 4626 16179 9909138 1 441.528911670896 149 76 76 11324 860624
938	2228834 7895 3609083 7884090 163.339711972902 353.253312533703 200 0.5 1 -nan -nan
942	2236729 5920 480017 9921536 24.52224 442.07616 232 120 120 27840 3340800
943	2242649 1096 479731 9903025 24.514864 441.288592 43 29 29 1247 36163
950	2243745 3186 3681530 8179557 166.710590002297 366.127915252705 100 76 76 7600 577600
952	2246931 3200 3691571 8198843 167.197632266851 367.000512266851 100 76 76 7600 577600
953	2250131 3585 16180 10106129 1 450.243376459312 115 76 76 8740 664240
954	2253716 8143 3681530 8198843 166.710590002297 367.000512266851 200 0.5 1 -nan -nan
958	2261859 5303 340178 10107384 18.99264 450.30144 207 120 120 24840 2980800
959	2267162 1096 456926 9986080 23.611088 444.989664 43 29 29 1247 36163
966	2268258 3194 3730990 9785623 169.007066321099 435.840810882376 100 76 76 7600 577600
968	2271452 3200 3748100 9813455 169.808832533703 437.195712533703 100 76 76 7600 577600
969	2274652 2851 16181 10037305 1 447.162864532016 92 76 76 6992 531392
970	2277503 7878 3730990 9813455 169.007066321099 437.195712533703 200 0.42857142857143 1 -nan -nan
974	2285381 4739 390051 10038651 20.9664 447.22944 186 120 120 22320 2678400
975	2290120 1096 479096 9906163 24.486576 441.407568 43 29 29 1247 36163
982	2291216 3193 3572892 7662472 161.663587200839 343.952005111915 100 76 76 7600 577600
984	2294409 3008 3595360 7700162 162.681792266851 345.527232266851 94 76 76 7144 542944
985	2297417 4093 16182 10030792 1 446.898892045289 131 76 76 9956 756656
986	2301510 7978 3572892 7700162 161.663587200839 345.527232266851 194 0.33333333333333 1 -nan -nan
990	2309488 5739 433617 10038649 22.68672 447.22944 225 120 120 27000 3240000
991	2315227 1097 432696 9983158 22.648944 444.852112 43 29 29 1247 36163
