version 2
run CSMA-0-20160924-13:06:10-14704
attr beaconInterval 10s
attr configname CSMA
attr datetime 20160924-13:06:10
attr experiment CSMA
attr inifile simulations/omnetpp.ini
attr iterationvars "$packetLength=76B, $sendInt=2, $beaconInterval=10s, $0=10s/2, $1=3 * 10s"
attr iterationvars2 "$packetLength=76B, $sendInt=2, $beaconInterval=10s, $0=10s/2, $1=3 * 10s, $repetition=0"
attr measurement "$packetLength=76B, $sendInt=2, $beaconInterval=10s, $0=10s/2, $1=3 * 10s"
attr network multi_gateway.Net802154MultiGateway
attr packetLength 76B
attr processid 14704
attr repetition 0
attr replication #0
attr resultdir ../results
attr runnumber 0
attr seedset 0
attr sendInt 2
param **.configurator.addStaticRoutes false
param **.dumpRoutes false
param **.dumpTopology false
param **.host[*].**.gpsr.beaconInterval "${beaconInterval = 10s}"
param **.host[*].**.gpsr.maxJitter ${$beaconInterval/2}
param **.host[*].**.gpsr.neighborValidityInterval "${3 * $beaconInterval}"
param **.host[*].**.gpsr.positionByteLength "2 B"
param **.host[*].**.gpsr.routingStrategy "\"StraightestPath\""
param **.host[*].**.trafficgen.continueSendingDummyPackets true
param **.host[*].**.trafficgen.coolDownDuration 15s
param **.host[*].**.trafficgen.destAddresses "\"host[0].wrappedHost(modulepath)\""
param **.host[*].**.trafficgen.packetLength "${packetLength = 76B}"
param **.host[*].**.trafficgen.sendInterval "exponential(${sendInt=1.0..2.5 step 0.25}s)"
param **.host[*].**.trafficgen.startTime 30s
param **.host[*].**.trafficgen.warmUpDuration 190s
param **.host[*].**.wlan[*].mac.queueLength 30
param **.host[*].**.wlan[*].macType "\"Ieee802154NarrowbandMac\""
param **.host[*].**.wlan[*].radio.receiver.minInterferencePower "-100 dBm"
param **.host[*].hostType "\"SimpleHost\""
param **.host[*].mobilityType "\"StaticConcentricWrappingMobility\""
param **.host[0].**.trafficgen.numPackets 0
param **.host[1..].**.trafficgen.numPackets 100
param **.numHosts 62
param **.radioMedium.rangeFilter "\"interferenceRange\""
param **.routingTable.addressType "\"modulepath\""
param **.routingTableType "\"GenericRoutingTable\""

vector 9  Net802154MultiGateway.host[0].wrappedHost.trafficgen  sentDummyPk:vector(packetBytes)  ETV
attr interpolationmode  none
attr source  sentDummyPk
attr title  "dummy packets sent, vector(packetBytes)"
vector 23  Net802154MultiGateway.host[1].wrappedHost.trafficgen  sentDummyPk:vector(packetBytes)  ETV
attr interpolationmode  none
attr source  sentDummyPk
attr title  "dummy packets sent, vector(packetBytes)"
vector 37  Net802154MultiGateway.host[2].wrappedHost.trafficgen  sentDummyPk:vector(packetBytes)  ETV
attr interpolationmode  none
attr source  sentDummyPk
attr title  "dummy packets sent, vector(packetBytes)"
vector 51  Net802154MultiGateway.host[3].wrappedHost.trafficgen  sentDummyPk:vector(packetBytes)  ETV
attr interpolationmode  none
attr source  sentDummyPk
attr title  "dummy packets sent, vector(packetBytes)"
vector 65  Net802154MultiGateway.host[4].wrappedHost.trafficgen  sentDummyPk:vector(packetBytes)  ETV
attr interpolationmode  none
attr source  sentDummyPk
attr title  "dummy packets sent, vector(packetBytes)"
vector 79  Net802154MultiGateway.host[5].wrappedHost.trafficgen  sentDummyPk:vector(packetBytes)  ETV
attr interpolationmode  none
attr source  sentDummyPk
attr title  "dummy packets sent, vector(packetBytes)"
vector 93  Net802154MultiGateway.host[6].wrappedHost.trafficgen  sentDummyPk:vector(packetBytes)  ETV
attr interpolationmode  none
attr source  sentDummyPk
attr title  "dummy packets sent, vector(packetBytes)"
vector 107  Net802154MultiGateway.host[7].wrappedHost.trafficgen  sentDummyPk:vector(packetBytes)  ETV
attr interpolationmode  none
attr source  sentDummyPk
attr title  "dummy packets sent, vector(packetBytes)"
vector 121  Net802154MultiGateway.host[8].wrappedHost.trafficgen  sentDummyPk:vector(packetBytes)  ETV
attr interpolationmode  none
attr source  sentDummyPk
attr title  "dummy packets sent, vector(packetBytes)"
vector 135  Net802154MultiGateway.host[9].wrappedHost.trafficgen  sentDummyPk:vector(packetBytes)  ETV
attr interpolationmode  none
attr source  sentDummyPk
attr title  "dummy packets sent, vector(packetBytes)"
vector 149  Net802154MultiGateway.host[10].wrappedHost.trafficgen  sentDummyPk:vector(packetBytes)  ETV
attr interpolationmode  none
attr source  sentDummyPk
attr title  "dummy packets sent, vector(packetBytes)"
vector 163  Net802154MultiGateway.host[11].wrappedHost.trafficgen  sentDummyPk:vector(packetBytes)  ETV
attr interpolationmode  none
attr source  sentDummyPk
attr title  "dummy packets sent, vector(packetBytes)"
vector 177  Net802154MultiGateway.host[12].wrappedHost.trafficgen  sentDummyPk:vector(packetBytes)  ETV
attr interpolationmode  none
attr source  sentDummyPk
attr title  "dummy packets sent, vector(packetBytes)"
vector 191  Net802154MultiGateway.host[13].wrappedHost.trafficgen  sentDummyPk:vector(packetBytes)  ETV
attr interpolationmode  none
attr source  sentDummyPk
attr title  "dummy packets sent, vector(packetBytes)"
vector 205  Net802154MultiGateway.host[14].wrappedHost.trafficgen  sentDummyPk:vector(packetBytes)  ETV
attr interpolationmode  none
attr source  sentDummyPk
attr title  "dummy packets sent, vector(packetBytes)"
vector 219  Net802154MultiGateway.host[15].wrappedHost.trafficgen  sentDummyPk:vector(packetBytes)  ETV
attr interpolationmode  none
attr source  sentDummyPk
attr title  "dummy packets sent, vector(packetBytes)"
vector 233  Net802154MultiGateway.host[16].wrappedHost.trafficgen  sentDummyPk:vector(packetBytes)  ETV
attr interpolationmode  none
attr source  sentDummyPk
attr title  "dummy packets sent, vector(packetBytes)"
vector 247  Net802154MultiGateway.host[17].wrappedHost.trafficgen  sentDummyPk:vector(packetBytes)  ETV
attr interpolationmode  none
attr source  sentDummyPk
attr title  "dummy packets sent, vector(packetBytes)"
vector 261  Net802154MultiGateway.host[18].wrappedHost.trafficgen  sentDummyPk:vector(packetBytes)  ETV
attr interpolationmode  none
attr source  sentDummyPk
attr title  "dummy packets sent, vector(packetBytes)"
vector 275  Net802154MultiGateway.host[19].wrappedHost.trafficgen  sentDummyPk:vector(packetBytes)  ETV
attr interpolationmode  none
attr source  sentDummyPk
attr title  "dummy packets sent, vector(packetBytes)"
vector 289  Net802154MultiGateway.host[20].wrappedHost.trafficgen  sentDummyPk:vector(packetBytes)  ETV
attr interpolationmode  none
attr source  sentDummyPk
attr title  "dummy packets sent, vector(packetBytes)"
vector 303  Net802154MultiGateway.host[21].wrappedHost.trafficgen  sentDummyPk:vector(packetBytes)  ETV
attr interpolationmode  none
attr source  sentDummyPk
attr title  "dummy packets sent, vector(packetBytes)"
vector 317  Net802154MultiGateway.host[22].wrappedHost.trafficgen  sentDummyPk:vector(packetBytes)  ETV
attr interpolationmode  none
attr source  sentDummyPk
attr title  "dummy packets sent, vector(packetBytes)"
vector 331  Net802154MultiGateway.host[23].wrappedHost.trafficgen  sentDummyPk:vector(packetBytes)  ETV
attr interpolationmode  none
attr source  sentDummyPk
attr title  "dummy packets sent, vector(packetBytes)"
vector 345  Net802154MultiGateway.host[24].wrappedHost.trafficgen  sentDummyPk:vector(packetBytes)  ETV
attr interpolationmode  none
attr source  sentDummyPk
attr title  "dummy packets sent, vector(packetBytes)"
vector 359  Net802154MultiGateway.host[25].wrappedHost.trafficgen  sentDummyPk:vector(packetBytes)  ETV
attr interpolationmode  none
attr source  sentDummyPk
attr title  "dummy packets sent, vector(packetBytes)"
vector 373  Net802154MultiGateway.host[26].wrappedHost.trafficgen  sentDummyPk:vector(packetBytes)  ETV
attr interpolationmode  none
attr source  sentDummyPk
attr title  "dummy packets sent, vector(packetBytes)"
vector 387  Net802154MultiGateway.host[27].wrappedHost.trafficgen  sentDummyPk:vector(packetBytes)  ETV
attr interpolationmode  none
attr source  sentDummyPk
attr title  "dummy packets sent, vector(packetBytes)"
vector 401  Net802154MultiGateway.host[28].wrappedHost.trafficgen  sentDummyPk:vector(packetBytes)  ETV
attr interpolationmode  none
attr source  sentDummyPk
attr title  "dummy packets sent, vector(packetBytes)"
vector 415  Net802154MultiGateway.host[29].wrappedHost.trafficgen  sentDummyPk:vector(packetBytes)  ETV
attr interpolationmode  none
attr source  sentDummyPk
attr title  "dummy packets sent, vector(packetBytes)"
vector 429  Net802154MultiGateway.host[30].wrappedHost.trafficgen  sentDummyPk:vector(packetBytes)  ETV
attr interpolationmode  none
attr source  sentDummyPk
attr title  "dummy packets sent, vector(packetBytes)"
vector 443  Net802154MultiGateway.host[31].wrappedHost.trafficgen  sentDummyPk:vector(packetBytes)  ETV
attr interpolationmode  none
attr source  sentDummyPk
attr title  "dummy packets sent, vector(packetBytes)"
vector 457  Net802154MultiGateway.host[32].wrappedHost.trafficgen  sentDummyPk:vector(packetBytes)  ETV
attr interpolationmode  none
attr source  sentDummyPk
attr title  "dummy packets sent, vector(packetBytes)"
vector 471  Net802154MultiGateway.host[33].wrappedHost.trafficgen  sentDummyPk:vector(packetBytes)  ETV
attr interpolationmode  none
attr source  sentDummyPk
attr title  "dummy packets sent, vector(packetBytes)"
vector 485  Net802154MultiGateway.host[34].wrappedHost.trafficgen  sentDummyPk:vector(packetBytes)  ETV
attr interpolationmode  none
attr source  sentDummyPk
attr title  "dummy packets sent, vector(packetBytes)"
vector 499  Net802154MultiGateway.host[35].wrappedHost.trafficgen  sentDummyPk:vector(packetBytes)  ETV
attr interpolationmode  none
attr source  sentDummyPk
attr title  "dummy packets sent, vector(packetBytes)"
vector 513  Net802154MultiGateway.host[36].wrappedHost.trafficgen  sentDummyPk:vector(packetBytes)  ETV
attr interpolationmode  none
attr source  sentDummyPk
attr title  "dummy packets sent, vector(packetBytes)"
vector 527  Net802154MultiGateway.host[37].wrappedHost.trafficgen  sentDummyPk:vector(packetBytes)  ETV
attr interpolationmode  none
attr source  sentDummyPk
attr title  "dummy packets sent, vector(packetBytes)"
vector 541  Net802154MultiGateway.host[38].wrappedHost.trafficgen  sentDummyPk:vector(packetBytes)  ETV
attr interpolationmode  none
attr source  sentDummyPk
attr title  "dummy packets sent, vector(packetBytes)"
vector 555  Net802154MultiGateway.host[39].wrappedHost.trafficgen  sentDummyPk:vector(packetBytes)  ETV
attr interpolationmode  none
attr source  sentDummyPk
attr title  "dummy packets sent, vector(packetBytes)"
vector 569  Net802154MultiGateway.host[40].wrappedHost.trafficgen  sentDummyPk:vector(packetBytes)  ETV
attr interpolationmode  none
attr source  sentDummyPk
attr title  "dummy packets sent, vector(packetBytes)"
vector 583  Net802154MultiGateway.host[41].wrappedHost.trafficgen  sentDummyPk:vector(packetBytes)  ETV
attr interpolationmode  none
attr source  sentDummyPk
attr title  "dummy packets sent, vector(packetBytes)"
vector 597  Net802154MultiGateway.host[42].wrappedHost.trafficgen  sentDummyPk:vector(packetBytes)  ETV
attr interpolationmode  none
attr source  sentDummyPk
attr title  "dummy packets sent, vector(packetBytes)"
vector 611  Net802154MultiGateway.host[43].wrappedHost.trafficgen  sentDummyPk:vector(packetBytes)  ETV
attr interpolationmode  none
attr source  sentDummyPk
attr title  "dummy packets sent, vector(packetBytes)"
vector 625  Net802154MultiGateway.host[44].wrappedHost.trafficgen  sentDummyPk:vector(packetBytes)  ETV
attr interpolationmode  none
attr source  sentDummyPk
attr title  "dummy packets sent, vector(packetBytes)"
vector 639  Net802154MultiGateway.host[45].wrappedHost.trafficgen  sentDummyPk:vector(packetBytes)  ETV
attr interpolationmode  none
attr source  sentDummyPk
attr title  "dummy packets sent, vector(packetBytes)"
vector 653  Net802154MultiGateway.host[46].wrappedHost.trafficgen  sentDummyPk:vector(packetBytes)  ETV
attr interpolationmode  none
attr source  sentDummyPk
attr title  "dummy packets sent, vector(packetBytes)"
vector 667  Net802154MultiGateway.host[47].wrappedHost.trafficgen  sentDummyPk:vector(packetBytes)  ETV
attr interpolationmode  none
attr source  sentDummyPk
attr title  "dummy packets sent, vector(packetBytes)"
vector 681  Net802154MultiGateway.host[48].wrappedHost.trafficgen  sentDummyPk:vector(packetBytes)  ETV
attr interpolationmode  none
attr source  sentDummyPk
attr title  "dummy packets sent, vector(packetBytes)"
vector 695  Net802154MultiGateway.host[49].wrappedHost.trafficgen  sentDummyPk:vector(packetBytes)  ETV
attr interpolationmode  none
attr source  sentDummyPk
attr title  "dummy packets sent, vector(packetBytes)"
vector 709  Net802154MultiGateway.host[50].wrappedHost.trafficgen  sentDummyPk:vector(packetBytes)  ETV
attr interpolationmode  none
attr source  sentDummyPk
attr title  "dummy packets sent, vector(packetBytes)"
vector 723  Net802154MultiGateway.host[51].wrappedHost.trafficgen  sentDummyPk:vector(packetBytes)  ETV
attr interpolationmode  none
attr source  sentDummyPk
attr title  "dummy packets sent, vector(packetBytes)"
vector 737  Net802154MultiGateway.host[52].wrappedHost.trafficgen  sentDummyPk:vector(packetBytes)  ETV
attr interpolationmode  none
attr source  sentDummyPk
attr title  "dummy packets sent, vector(packetBytes)"
vector 751  Net802154MultiGateway.host[53].wrappedHost.trafficgen  sentDummyPk:vector(packetBytes)  ETV
attr interpolationmode  none
attr source  sentDummyPk
attr title  "dummy packets sent, vector(packetBytes)"
vector 765  Net802154MultiGateway.host[54].wrappedHost.trafficgen  sentDummyPk:vector(packetBytes)  ETV
attr interpolationmode  none
attr source  sentDummyPk
attr title  "dummy packets sent, vector(packetBytes)"
vector 779  Net802154MultiGateway.host[55].wrappedHost.trafficgen  sentDummyPk:vector(packetBytes)  ETV
attr interpolationmode  none
attr source  sentDummyPk
attr title  "dummy packets sent, vector(packetBytes)"
vector 793  Net802154MultiGateway.host[56].wrappedHost.trafficgen  sentDummyPk:vector(packetBytes)  ETV
attr interpolationmode  none
attr source  sentDummyPk
attr title  "dummy packets sent, vector(packetBytes)"
vector 807  Net802154MultiGateway.host[57].wrappedHost.trafficgen  sentDummyPk:vector(packetBytes)  ETV
attr interpolationmode  none
attr source  sentDummyPk
attr title  "dummy packets sent, vector(packetBytes)"
vector 821  Net802154MultiGateway.host[58].wrappedHost.trafficgen  sentDummyPk:vector(packetBytes)  ETV
attr interpolationmode  none
attr source  sentDummyPk
attr title  "dummy packets sent, vector(packetBytes)"
vector 835  Net802154MultiGateway.host[59].wrappedHost.trafficgen  sentDummyPk:vector(packetBytes)  ETV
attr interpolationmode  none
attr source  sentDummyPk
attr title  "dummy packets sent, vector(packetBytes)"
vector 849  Net802154MultiGateway.host[60].wrappedHost.trafficgen  sentDummyPk:vector(packetBytes)  ETV
attr interpolationmode  none
attr source  sentDummyPk
attr title  "dummy packets sent, vector(packetBytes)"
vector 863  Net802154MultiGateway.host[61].wrappedHost.trafficgen  sentDummyPk:vector(packetBytes)  ETV
attr interpolationmode  none
attr source  sentDummyPk
attr title  "dummy packets sent, vector(packetBytes)"
vector 412  Net802154MultiGateway.host[29].wrappedHost.trafficgen  sentPk:vector(packetBytes)  ETV
attr interpolationmode  none
attr source  sentPk
attr title  "packets sent, vector(packetBytes)"
vector 416  Net802154MultiGateway.host[29].wrappedHost.trafficgen  PRR:vector  ETV
attr interpolationmode  none
attr source  count(sinkRcvdPk)/count(sentPk)
attr title  "PRR, vector"
vector 414  Net802154MultiGateway.host[29].wrappedHost.trafficgen  sinkRcvdPk:vector(packetBytes)  ETV
attr interpolationmode  none
attr source  sinkRcvdPk
attr title  "own packets received by sink, vector(packetBytes)"
vector 5  Net802154MultiGateway.host[0].wrappedHost.trafficgen  rcvdPk:vector(packetBytes)  ETV
attr interpolationmode  none
attr source  rcvdPk
attr title  "packets received, vector(packetBytes)"
vector 7  Net802154MultiGateway.host[0].wrappedHost.trafficgen  endToEndDelay:vector  ETV
attr interpolationmode  none
attr source  messageAge(rcvdPk)
attr title  "end-to-end delay, vector"
attr unit  s
vector 566  Net802154MultiGateway.host[40].wrappedHost.trafficgen  sentPk:vector(packetBytes)  ETV
attr interpolationmode  none
attr source  sentPk
attr title  "packets sent, vector(packetBytes)"
vector 570  Net802154MultiGateway.host[40].wrappedHost.trafficgen  PRR:vector  ETV
attr interpolationmode  none
attr source  count(sinkRcvdPk)/count(sentPk)
attr title  "PRR, vector"
vector 524  Net802154MultiGateway.host[37].wrappedHost.trafficgen  sentPk:vector(packetBytes)  ETV
attr interpolationmode  none
attr source  sentPk
attr title  "packets sent, vector(packetBytes)"
vector 528  Net802154MultiGateway.host[37].wrappedHost.trafficgen  PRR:vector  ETV
attr interpolationmode  none
attr source  count(sinkRcvdPk)/count(sentPk)
attr title  "PRR, vector"
vector 568  Net802154MultiGateway.host[40].wrappedHost.trafficgen  sinkRcvdPk:vector(packetBytes)  ETV
attr interpolationmode  none
attr source  sinkRcvdPk
attr title  "own packets received by sink, vector(packetBytes)"
vector 90  Net802154MultiGateway.host[6].wrappedHost.trafficgen  sentPk:vector(packetBytes)  ETV
attr interpolationmode  none
attr source  sentPk
attr title  "packets sent, vector(packetBytes)"
vector 94  Net802154MultiGateway.host[6].wrappedHost.trafficgen  PRR:vector  ETV
attr interpolationmode  none
attr source  count(sinkRcvdPk)/count(sentPk)
attr title  "PRR, vector"
vector 92  Net802154MultiGateway.host[6].wrappedHost.trafficgen  sinkRcvdPk:vector(packetBytes)  ETV
attr interpolationmode  none
attr source  sinkRcvdPk
attr title  "own packets received by sink, vector(packetBytes)"
vector 526  Net802154MultiGateway.host[37].wrappedHost.trafficgen  sinkRcvdPk:vector(packetBytes)  ETV
attr interpolationmode  none
attr source  sinkRcvdPk
attr title  "own packets received by sink, vector(packetBytes)"
vector 314  Net802154MultiGateway.host[22].wrappedHost.trafficgen  sentPk:vector(packetBytes)  ETV
attr interpolationmode  none
attr source  sentPk
attr title  "packets sent, vector(packetBytes)"
vector 318  Net802154MultiGateway.host[22].wrappedHost.trafficgen  PRR:vector  ETV
attr interpolationmode  none
attr source  count(sinkRcvdPk)/count(sentPk)
attr title  "PRR, vector"
vector 202  Net802154MultiGateway.host[14].wrappedHost.trafficgen  sentPk:vector(packetBytes)  ETV
attr interpolationmode  none
attr source  sentPk
attr title  "packets sent, vector(packetBytes)"
vector 206  Net802154MultiGateway.host[14].wrappedHost.trafficgen  PRR:vector  ETV
attr interpolationmode  none
attr source  count(sinkRcvdPk)/count(sentPk)
attr title  "PRR, vector"
vector 316  Net802154MultiGateway.host[22].wrappedHost.trafficgen  sinkRcvdPk:vector(packetBytes)  ETV
attr interpolationmode  none
attr source  sinkRcvdPk
attr title  "own packets received by sink, vector(packetBytes)"
vector 204  Net802154MultiGateway.host[14].wrappedHost.trafficgen  sinkRcvdPk:vector(packetBytes)  ETV
attr interpolationmode  none
attr source  sinkRcvdPk
attr title  "own packets received by sink, vector(packetBytes)"
vector 20  Net802154MultiGateway.host[1].wrappedHost.trafficgen  sentPk:vector(packetBytes)  ETV
attr interpolationmode  none
attr source  sentPk
attr title  "packets sent, vector(packetBytes)"
vector 24  Net802154MultiGateway.host[1].wrappedHost.trafficgen  PRR:vector  ETV
attr interpolationmode  none
attr source  count(sinkRcvdPk)/count(sentPk)
attr title  "PRR, vector"
vector 22  Net802154MultiGateway.host[1].wrappedHost.trafficgen  sinkRcvdPk:vector(packetBytes)  ETV
attr interpolationmode  none
attr source  sinkRcvdPk
attr title  "own packets received by sink, vector(packetBytes)"
vector 328  Net802154MultiGateway.host[23].wrappedHost.trafficgen  sentPk:vector(packetBytes)  ETV
attr interpolationmode  none
attr source  sentPk
attr title  "packets sent, vector(packetBytes)"
vector 332  Net802154MultiGateway.host[23].wrappedHost.trafficgen  PRR:vector  ETV
attr interpolationmode  none
attr source  count(sinkRcvdPk)/count(sentPk)
attr title  "PRR, vector"
vector 748  Net802154MultiGateway.host[53].wrappedHost.trafficgen  sentPk:vector(packetBytes)  ETV
attr interpolationmode  none
attr source  sentPk
attr title  "packets sent, vector(packetBytes)"
vector 752  Net802154MultiGateway.host[53].wrappedHost.trafficgen  PRR:vector  ETV
attr interpolationmode  none
attr source  count(sinkRcvdPk)/count(sentPk)
attr title  "PRR, vector"
vector 426  Net802154MultiGateway.host[30].wrappedHost.trafficgen  sentPk:vector(packetBytes)  ETV
attr interpolationmode  none
attr source  sentPk
attr title  "packets sent, vector(packetBytes)"
vector 430  Net802154MultiGateway.host[30].wrappedHost.trafficgen  PRR:vector  ETV
attr interpolationmode  none
attr source  count(sinkRcvdPk)/count(sentPk)
attr title  "PRR, vector"
vector 330  Net802154MultiGateway.host[23].wrappedHost.trafficgen  sinkRcvdPk:vector(packetBytes)  ETV
attr interpolationmode  none
attr source  sinkRcvdPk
attr title  "own packets received by sink, vector(packetBytes)"
vector 650  Net802154MultiGateway.host[46].wrappedHost.trafficgen  sentPk:vector(packetBytes)  ETV
attr interpolationmode  none
attr source  sentPk
attr title  "packets sent, vector(packetBytes)"
vector 654  Net802154MultiGateway.host[46].wrappedHost.trafficgen  PRR:vector  ETV
attr interpolationmode  none
attr source  count(sinkRcvdPk)/count(sentPk)
attr title  "PRR, vector"
vector 750  Net802154MultiGateway.host[53].wrappedHost.trafficgen  sinkRcvdPk:vector(packetBytes)  ETV
attr interpolationmode  none
attr source  sinkRcvdPk
attr title  "own packets received by sink, vector(packetBytes)"
vector 428  Net802154MultiGateway.host[30].wrappedHost.trafficgen  sinkRcvdPk:vector(packetBytes)  ETV
attr interpolationmode  none
attr source  sinkRcvdPk
attr title  "own packets received by sink, vector(packetBytes)"
vector 652  Net802154MultiGateway.host[46].wrappedHost.trafficgen  sinkRcvdPk:vector(packetBytes)  ETV
attr interpolationmode  none
attr source  sinkRcvdPk
attr title  "own packets received by sink, vector(packetBytes)"
vector 664  Net802154MultiGateway.host[47].wrappedHost.trafficgen  sentPk:vector(packetBytes)  ETV
attr interpolationmode  none
attr source  sentPk
attr title  "packets sent, vector(packetBytes)"
vector 668  Net802154MultiGateway.host[47].wrappedHost.trafficgen  PRR:vector  ETV
attr interpolationmode  none
attr source  count(sinkRcvdPk)/count(sentPk)
attr title  "PRR, vector"
vector 594  Net802154MultiGateway.host[42].wrappedHost.trafficgen  sentPk:vector(packetBytes)  ETV
attr interpolationmode  none
attr source  sentPk
attr title  "packets sent, vector(packetBytes)"
vector 598  Net802154MultiGateway.host[42].wrappedHost.trafficgen  PRR:vector  ETV
attr interpolationmode  none
attr source  count(sinkRcvdPk)/count(sentPk)
attr title  "PRR, vector"
vector 666  Net802154MultiGateway.host[47].wrappedHost.trafficgen  sinkRcvdPk:vector(packetBytes)  ETV
attr interpolationmode  none
attr source  sinkRcvdPk
attr title  "own packets received by sink, vector(packetBytes)"
vector 596  Net802154MultiGateway.host[42].wrappedHost.trafficgen  sinkRcvdPk:vector(packetBytes)  ETV
attr interpolationmode  none
attr source  sinkRcvdPk
attr title  "own packets received by sink, vector(packetBytes)"
vector 692  Net802154MultiGateway.host[49].wrappedHost.trafficgen  sentPk:vector(packetBytes)  ETV
attr interpolationmode  none
attr source  sentPk
attr title  "packets sent, vector(packetBytes)"
vector 696  Net802154MultiGateway.host[49].wrappedHost.trafficgen  PRR:vector  ETV
attr interpolationmode  none
attr source  count(sinkRcvdPk)/count(sentPk)
attr title  "PRR, vector"
vector 694  Net802154MultiGateway.host[49].wrappedHost.trafficgen  sinkRcvdPk:vector(packetBytes)  ETV
attr interpolationmode  none
attr source  sinkRcvdPk
attr title  "own packets received by sink, vector(packetBytes)"
vector 398  Net802154MultiGateway.host[28].wrappedHost.trafficgen  sentPk:vector(packetBytes)  ETV
attr interpolationmode  none
attr source  sentPk
attr title  "packets sent, vector(packetBytes)"
vector 402  Net802154MultiGateway.host[28].wrappedHost.trafficgen  PRR:vector  ETV
attr interpolationmode  none
attr source  count(sinkRcvdPk)/count(sentPk)
attr title  "PRR, vector"
vector 400  Net802154MultiGateway.host[28].wrappedHost.trafficgen  sinkRcvdPk:vector(packetBytes)  ETV
attr interpolationmode  none
attr source  sinkRcvdPk
attr title  "own packets received by sink, vector(packetBytes)"
vector 384  Net802154MultiGateway.host[27].wrappedHost.trafficgen  sentPk:vector(packetBytes)  ETV
attr interpolationmode  none
attr source  sentPk
attr title  "packets sent, vector(packetBytes)"
vector 388  Net802154MultiGateway.host[27].wrappedHost.trafficgen  PRR:vector  ETV
attr interpolationmode  none
attr source  count(sinkRcvdPk)/count(sentPk)
attr title  "PRR, vector"
vector 720  Net802154MultiGateway.host[51].wrappedHost.trafficgen  sentPk:vector(packetBytes)  ETV
attr interpolationmode  none
attr source  sentPk
attr title  "packets sent, vector(packetBytes)"
vector 724  Net802154MultiGateway.host[51].wrappedHost.trafficgen  PRR:vector  ETV
attr interpolationmode  none
attr source  count(sinkRcvdPk)/count(sentPk)
attr title  "PRR, vector"
vector 386  Net802154MultiGateway.host[27].wrappedHost.trafficgen  sinkRcvdPk:vector(packetBytes)  ETV
attr interpolationmode  none
attr source  sinkRcvdPk
attr title  "own packets received by sink, vector(packetBytes)"
vector 722  Net802154MultiGateway.host[51].wrappedHost.trafficgen  sinkRcvdPk:vector(packetBytes)  ETV
attr interpolationmode  none
attr source  sinkRcvdPk
attr title  "own packets received by sink, vector(packetBytes)"
vector 146  Net802154MultiGateway.host[10].wrappedHost.trafficgen  sentPk:vector(packetBytes)  ETV
attr interpolationmode  none
attr source  sentPk
attr title  "packets sent, vector(packetBytes)"
vector 150  Net802154MultiGateway.host[10].wrappedHost.trafficgen  PRR:vector  ETV
attr interpolationmode  none
attr source  count(sinkRcvdPk)/count(sentPk)
attr title  "PRR, vector"
vector 148  Net802154MultiGateway.host[10].wrappedHost.trafficgen  sinkRcvdPk:vector(packetBytes)  ETV
attr interpolationmode  none
attr source  sinkRcvdPk
attr title  "own packets received by sink, vector(packetBytes)"
vector 776  Net802154MultiGateway.host[55].wrappedHost.trafficgen  sentPk:vector(packetBytes)  ETV
attr interpolationmode  none
attr source  sentPk
attr title  "packets sent, vector(packetBytes)"
vector 780  Net802154MultiGateway.host[55].wrappedHost.trafficgen  PRR:vector  ETV
attr interpolationmode  none
attr source  count(sinkRcvdPk)/count(sentPk)
attr title  "PRR, vector"
vector 818  Net802154MultiGateway.host[58].wrappedHost.trafficgen  sentPk:vector(packetBytes)  ETV
attr interpolationmode  none
attr source  sentPk
attr title  "packets sent, vector(packetBytes)"
vector 822  Net802154MultiGateway.host[58].wrappedHost.trafficgen  PRR:vector  ETV
attr interpolationmode  none
attr source  count(sinkRcvdPk)/count(sentPk)
attr title  "PRR, vector"
vector 778  Net802154MultiGateway.host[55].wrappedHost.trafficgen  sinkRcvdPk:vector(packetBytes)  ETV
attr interpolationmode  none
attr source  sinkRcvdPk
attr title  "own packets received by sink, vector(packetBytes)"
vector 820  Net802154MultiGateway.host[58].wrappedHost.trafficgen  sinkRcvdPk:vector(packetBytes)  ETV
attr interpolationmode  none
attr source  sinkRcvdPk
attr title  "own packets received by sink, vector(packetBytes)"
vector 468  Net802154MultiGateway.host[33].wrappedHost.trafficgen  sentPk:vector(packetBytes)  ETV
attr interpolationmode  none
attr source  sentPk
attr title  "packets sent, vector(packetBytes)"
vector 472  Net802154MultiGateway.host[33].wrappedHost.trafficgen  PRR:vector  ETV
attr interpolationmode  none
attr source  count(sinkRcvdPk)/count(sentPk)
attr title  "PRR, vector"
vector 470  Net802154MultiGateway.host[33].wrappedHost.trafficgen  sinkRcvdPk:vector(packetBytes)  ETV
attr interpolationmode  none
attr source  sinkRcvdPk
attr title  "own packets received by sink, vector(packetBytes)"
vector 482  Net802154MultiGateway.host[34].wrappedHost.trafficgen  sentPk:vector(packetBytes)  ETV
attr interpolationmode  none
attr source  sentPk
attr title  "packets sent, vector(packetBytes)"
vector 486  Net802154MultiGateway.host[34].wrappedHost.trafficgen  PRR:vector  ETV
attr interpolationmode  none
attr source  count(sinkRcvdPk)/count(sentPk)
attr title  "PRR, vector"
vector 484  Net802154MultiGateway.host[34].wrappedHost.trafficgen  sinkRcvdPk:vector(packetBytes)  ETV
attr interpolationmode  none
attr source  sinkRcvdPk
attr title  "own packets received by sink, vector(packetBytes)"
vector 356  Net802154MultiGateway.host[25].wrappedHost.trafficgen  sentPk:vector(packetBytes)  ETV
attr interpolationmode  none
attr source  sentPk
attr title  "packets sent, vector(packetBytes)"
vector 360  Net802154MultiGateway.host[25].wrappedHost.trafficgen  PRR:vector  ETV
attr interpolationmode  none
attr source  count(sinkRcvdPk)/count(sentPk)
attr title  "PRR, vector"
vector 358  Net802154MultiGateway.host[25].wrappedHost.trafficgen  sinkRcvdPk:vector(packetBytes)  ETV
attr interpolationmode  none
attr source  sinkRcvdPk
attr title  "own packets received by sink, vector(packetBytes)"
vector 734  Net802154MultiGateway.host[52].wrappedHost.trafficgen  sentPk:vector(packetBytes)  ETV
attr interpolationmode  none
attr source  sentPk
attr title  "packets sent, vector(packetBytes)"
vector 738  Net802154MultiGateway.host[52].wrappedHost.trafficgen  PRR:vector  ETV
attr interpolationmode  none
attr source  count(sinkRcvdPk)/count(sentPk)
attr title  "PRR, vector"
vector 216  Net802154MultiGateway.host[15].wrappedHost.trafficgen  sentPk:vector(packetBytes)  ETV
attr interpolationmode  none
attr source  sentPk
attr title  "packets sent, vector(packetBytes)"
vector 220  Net802154MultiGateway.host[15].wrappedHost.trafficgen  PRR:vector  ETV
attr interpolationmode  none
attr source  count(sinkRcvdPk)/count(sentPk)
attr title  "PRR, vector"
vector 218  Net802154MultiGateway.host[15].wrappedHost.trafficgen  sinkRcvdPk:vector(packetBytes)  ETV
attr interpolationmode  none
attr source  sinkRcvdPk
attr title  "own packets received by sink, vector(packetBytes)"
vector 736  Net802154MultiGateway.host[52].wrappedHost.trafficgen  sinkRcvdPk:vector(packetBytes)  ETV
attr interpolationmode  none
attr source  sinkRcvdPk
attr title  "own packets received by sink, vector(packetBytes)"
vector 510  Net802154MultiGateway.host[36].wrappedHost.trafficgen  sentPk:vector(packetBytes)  ETV
attr interpolationmode  none
attr source  sentPk
attr title  "packets sent, vector(packetBytes)"
vector 514  Net802154MultiGateway.host[36].wrappedHost.trafficgen  PRR:vector  ETV
attr interpolationmode  none
attr source  count(sinkRcvdPk)/count(sentPk)
attr title  "PRR, vector"
vector 512  Net802154MultiGateway.host[36].wrappedHost.trafficgen  sinkRcvdPk:vector(packetBytes)  ETV
attr interpolationmode  none
attr source  sinkRcvdPk
attr title  "own packets received by sink, vector(packetBytes)"
vector 832  Net802154MultiGateway.host[59].wrappedHost.trafficgen  sentPk:vector(packetBytes)  ETV
attr interpolationmode  none
attr source  sentPk
attr title  "packets sent, vector(packetBytes)"
vector 836  Net802154MultiGateway.host[59].wrappedHost.trafficgen  PRR:vector  ETV
attr interpolationmode  none
attr source  count(sinkRcvdPk)/count(sentPk)
attr title  "PRR, vector"
vector 834  Net802154MultiGateway.host[59].wrappedHost.trafficgen  sinkRcvdPk:vector(packetBytes)  ETV
attr interpolationmode  none
attr source  sinkRcvdPk
attr title  "own packets received by sink, vector(packetBytes)"
vector 370  Net802154MultiGateway.host[26].wrappedHost.trafficgen  sentPk:vector(packetBytes)  ETV
attr interpolationmode  none
attr source  sentPk
attr title  "packets sent, vector(packetBytes)"
vector 374  Net802154MultiGateway.host[26].wrappedHost.trafficgen  PRR:vector  ETV
attr interpolationmode  none
attr source  count(sinkRcvdPk)/count(sentPk)
attr title  "PRR, vector"
vector 372  Net802154MultiGateway.host[26].wrappedHost.trafficgen  sinkRcvdPk:vector(packetBytes)  ETV
attr interpolationmode  none
attr source  sinkRcvdPk
attr title  "own packets received by sink, vector(packetBytes)"
vector 76  Net802154MultiGateway.host[5].wrappedHost.trafficgen  sentPk:vector(packetBytes)  ETV
attr interpolationmode  none
attr source  sentPk
attr title  "packets sent, vector(packetBytes)"
vector 80  Net802154MultiGateway.host[5].wrappedHost.trafficgen  PRR:vector  ETV
attr interpolationmode  none
attr source  count(sinkRcvdPk)/count(sentPk)
attr title  "PRR, vector"
vector 78  Net802154MultiGateway.host[5].wrappedHost.trafficgen  sinkRcvdPk:vector(packetBytes)  ETV
attr interpolationmode  none
attr source  sinkRcvdPk
attr title  "own packets received by sink, vector(packetBytes)"
vector 48  Net802154MultiGateway.host[3].wrappedHost.trafficgen  sentPk:vector(packetBytes)  ETV
attr interpolationmode  none
attr source  sentPk
attr title  "packets sent, vector(packetBytes)"
vector 52  Net802154MultiGateway.host[3].wrappedHost.trafficgen  PRR:vector  ETV
attr interpolationmode  none
attr source  count(sinkRcvdPk)/count(sentPk)
attr title  "PRR, vector"
vector 50  Net802154MultiGateway.host[3].wrappedHost.trafficgen  sinkRcvdPk:vector(packetBytes)  ETV
attr interpolationmode  none
attr source  sinkRcvdPk
attr title  "own packets received by sink, vector(packetBytes)"
vector 258  Net802154MultiGateway.host[18].wrappedHost.trafficgen  sentPk:vector(packetBytes)  ETV
attr interpolationmode  none
attr source  sentPk
attr title  "packets sent, vector(packetBytes)"
vector 262  Net802154MultiGateway.host[18].wrappedHost.trafficgen  PRR:vector  ETV
attr interpolationmode  none
attr source  count(sinkRcvdPk)/count(sentPk)
attr title  "PRR, vector"
vector 260  Net802154MultiGateway.host[18].wrappedHost.trafficgen  sinkRcvdPk:vector(packetBytes)  ETV
attr interpolationmode  none
attr source  sinkRcvdPk
attr title  "own packets received by sink, vector(packetBytes)"
vector 440  Net802154MultiGateway.host[31].wrappedHost.trafficgen  sentPk:vector(packetBytes)  ETV
attr interpolationmode  none
attr source  sentPk
attr title  "packets sent, vector(packetBytes)"
vector 444  Net802154MultiGateway.host[31].wrappedHost.trafficgen  PRR:vector  ETV
attr interpolationmode  none
attr source  count(sinkRcvdPk)/count(sentPk)
attr title  "PRR, vector"
vector 442  Net802154MultiGateway.host[31].wrappedHost.trafficgen  sinkRcvdPk:vector(packetBytes)  ETV
attr interpolationmode  none
attr source  sinkRcvdPk
attr title  "own packets received by sink, vector(packetBytes)"
vector 230  Net802154MultiGateway.host[16].wrappedHost.trafficgen  sentPk:vector(packetBytes)  ETV
attr interpolationmode  none
attr source  sentPk
attr title  "packets sent, vector(packetBytes)"
vector 234  Net802154MultiGateway.host[16].wrappedHost.trafficgen  PRR:vector  ETV
attr interpolationmode  none
attr source  count(sinkRcvdPk)/count(sentPk)
attr title  "PRR, vector"
vector 232  Net802154MultiGateway.host[16].wrappedHost.trafficgen  sinkRcvdPk:vector(packetBytes)  ETV
attr interpolationmode  none
attr source  sinkRcvdPk
attr title  "own packets received by sink, vector(packetBytes)"
vector 762  Net802154MultiGateway.host[54].wrappedHost.trafficgen  sentPk:vector(packetBytes)  ETV
attr interpolationmode  none
attr source  sentPk
attr title  "packets sent, vector(packetBytes)"
vector 766  Net802154MultiGateway.host[54].wrappedHost.trafficgen  PRR:vector  ETV
attr interpolationmode  none
attr source  count(sinkRcvdPk)/count(sentPk)
attr title  "PRR, vector"
vector 846  Net802154MultiGateway.host[60].wrappedHost.trafficgen  sentPk:vector(packetBytes)  ETV
attr interpolationmode  none
attr source  sentPk
attr title  "packets sent, vector(packetBytes)"
vector 850  Net802154MultiGateway.host[60].wrappedHost.trafficgen  PRR:vector  ETV
attr interpolationmode  none
attr source  count(sinkRcvdPk)/count(sentPk)
attr title  "PRR, vector"
vector 764  Net802154MultiGateway.host[54].wrappedHost.trafficgen  sinkRcvdPk:vector(packetBytes)  ETV
attr interpolationmode  none
attr source  sinkRcvdPk
attr title  "own packets received by sink, vector(packetBytes)"
vector 848  Net802154MultiGateway.host[60].wrappedHost.trafficgen  sinkRcvdPk:vector(packetBytes)  ETV
attr interpolationmode  none
attr source  sinkRcvdPk
attr title  "own packets received by sink, vector(packetBytes)"
vector 62  Net802154MultiGateway.host[4].wrappedHost.trafficgen  sentPk:vector(packetBytes)  ETV
attr interpolationmode  none
attr source  sentPk
attr title  "packets sent, vector(packetBytes)"
vector 66  Net802154MultiGateway.host[4].wrappedHost.trafficgen  PRR:vector  ETV
attr interpolationmode  none
attr source  count(sinkRcvdPk)/count(sentPk)
attr title  "PRR, vector"
vector 64  Net802154MultiGateway.host[4].wrappedHost.trafficgen  sinkRcvdPk:vector(packetBytes)  ETV
attr interpolationmode  none
attr source  sinkRcvdPk
attr title  "own packets received by sink, vector(packetBytes)"
vector 132  Net802154MultiGateway.host[9].wrappedHost.trafficgen  sentPk:vector(packetBytes)  ETV
attr interpolationmode  none
attr source  sentPk
attr title  "packets sent, vector(packetBytes)"
vector 136  Net802154MultiGateway.host[9].wrappedHost.trafficgen  PRR:vector  ETV
attr interpolationmode  none
attr source  count(sinkRcvdPk)/count(sentPk)
attr title  "PRR, vector"
vector 134  Net802154MultiGateway.host[9].wrappedHost.trafficgen  sinkRcvdPk:vector(packetBytes)  ETV
attr interpolationmode  none
attr source  sinkRcvdPk
attr title  "own packets received by sink, vector(packetBytes)"
vector 342  Net802154MultiGateway.host[24].wrappedHost.trafficgen  sentPk:vector(packetBytes)  ETV
attr interpolationmode  none
attr source  sentPk
attr title  "packets sent, vector(packetBytes)"
vector 346  Net802154MultiGateway.host[24].wrappedHost.trafficgen  PRR:vector  ETV
attr interpolationmode  none
attr source  count(sinkRcvdPk)/count(sentPk)
attr title  "PRR, vector"
vector 344  Net802154MultiGateway.host[24].wrappedHost.trafficgen  sinkRcvdPk:vector(packetBytes)  ETV
attr interpolationmode  none
attr source  sinkRcvdPk
attr title  "own packets received by sink, vector(packetBytes)"
vector 160  Net802154MultiGateway.host[11].wrappedHost.trafficgen  sentPk:vector(packetBytes)  ETV
attr interpolationmode  none
attr source  sentPk
attr title  "packets sent, vector(packetBytes)"
vector 164  Net802154MultiGateway.host[11].wrappedHost.trafficgen  PRR:vector  ETV
attr interpolationmode  none
attr source  count(sinkRcvdPk)/count(sentPk)
attr title  "PRR, vector"
vector 162  Net802154MultiGateway.host[11].wrappedHost.trafficgen  sinkRcvdPk:vector(packetBytes)  ETV
attr interpolationmode  none
attr source  sinkRcvdPk
attr title  "own packets received by sink, vector(packetBytes)"
vector 608  Net802154MultiGateway.host[43].wrappedHost.trafficgen  sentPk:vector(packetBytes)  ETV
attr interpolationmode  none
attr source  sentPk
attr title  "packets sent, vector(packetBytes)"
vector 612  Net802154MultiGateway.host[43].wrappedHost.trafficgen  PRR:vector  ETV
attr interpolationmode  none
attr source  count(sinkRcvdPk)/count(sentPk)
attr title  "PRR, vector"
vector 610  Net802154MultiGateway.host[43].wrappedHost.trafficgen  sinkRcvdPk:vector(packetBytes)  ETV
attr interpolationmode  none
attr source  sinkRcvdPk
attr title  "own packets received by sink, vector(packetBytes)"
vector 552  Net802154MultiGateway.host[39].wrappedHost.trafficgen  sentPk:vector(packetBytes)  ETV
attr interpolationmode  none
attr source  sentPk
attr title  "packets sent, vector(packetBytes)"
vector 556  Net802154MultiGateway.host[39].wrappedHost.trafficgen  PRR:vector  ETV
attr interpolationmode  none
attr source  count(sinkRcvdPk)/count(sentPk)
attr title  "PRR, vector"
vector 554  Net802154MultiGateway.host[39].wrappedHost.trafficgen  sinkRcvdPk:vector(packetBytes)  ETV
attr interpolationmode  none
attr source  sinkRcvdPk
attr title  "own packets received by sink, vector(packetBytes)"
vector 244  Net802154MultiGateway.host[17].wrappedHost.trafficgen  sentPk:vector(packetBytes)  ETV
attr interpolationmode  none
attr source  sentPk
attr title  "packets sent, vector(packetBytes)"
vector 248  Net802154MultiGateway.host[17].wrappedHost.trafficgen  PRR:vector  ETV
attr interpolationmode  none
attr source  count(sinkRcvdPk)/count(sentPk)
attr title  "PRR, vector"
vector 246  Net802154MultiGateway.host[17].wrappedHost.trafficgen  sinkRcvdPk:vector(packetBytes)  ETV
attr interpolationmode  none
attr source  sinkRcvdPk
attr title  "own packets received by sink, vector(packetBytes)"
vector 300  Net802154MultiGateway.host[21].wrappedHost.trafficgen  sentPk:vector(packetBytes)  ETV
attr interpolationmode  none
attr source  sentPk
attr title  "packets sent, vector(packetBytes)"
vector 304  Net802154MultiGateway.host[21].wrappedHost.trafficgen  PRR:vector  ETV
attr interpolationmode  none
attr source  count(sinkRcvdPk)/count(sentPk)
attr title  "PRR, vector"
vector 302  Net802154MultiGateway.host[21].wrappedHost.trafficgen  sinkRcvdPk:vector(packetBytes)  ETV
attr interpolationmode  none
attr source  sinkRcvdPk
attr title  "own packets received by sink, vector(packetBytes)"
vector 636  Net802154MultiGateway.host[45].wrappedHost.trafficgen  sentPk:vector(packetBytes)  ETV
attr interpolationmode  none
attr source  sentPk
attr title  "packets sent, vector(packetBytes)"
vector 640  Net802154MultiGateway.host[45].wrappedHost.trafficgen  PRR:vector  ETV
attr interpolationmode  none
attr source  count(sinkRcvdPk)/count(sentPk)
attr title  "PRR, vector"
vector 638  Net802154MultiGateway.host[45].wrappedHost.trafficgen  sinkRcvdPk:vector(packetBytes)  ETV
attr interpolationmode  none
attr source  sinkRcvdPk
attr title  "own packets received by sink, vector(packetBytes)"
vector 580  Net802154MultiGateway.host[41].wrappedHost.trafficgen  sentPk:vector(packetBytes)  ETV
attr interpolationmode  none
attr source  sentPk
attr title  "packets sent, vector(packetBytes)"
vector 584  Net802154MultiGateway.host[41].wrappedHost.trafficgen  PRR:vector  ETV
attr interpolationmode  none
attr source  count(sinkRcvdPk)/count(sentPk)
attr title  "PRR, vector"
vector 678  Net802154MultiGateway.host[48].wrappedHost.trafficgen  sentPk:vector(packetBytes)  ETV
attr interpolationmode  none
attr source  sentPk
attr title  "packets sent, vector(packetBytes)"
vector 682  Net802154MultiGateway.host[48].wrappedHost.trafficgen  PRR:vector  ETV
attr interpolationmode  none
attr source  count(sinkRcvdPk)/count(sentPk)
attr title  "PRR, vector"
vector 538  Net802154MultiGateway.host[38].wrappedHost.trafficgen  sentPk:vector(packetBytes)  ETV
attr interpolationmode  none
attr source  sentPk
attr title  "packets sent, vector(packetBytes)"
vector 542  Net802154MultiGateway.host[38].wrappedHost.trafficgen  PRR:vector  ETV
attr interpolationmode  none
attr source  count(sinkRcvdPk)/count(sentPk)
attr title  "PRR, vector"
vector 582  Net802154MultiGateway.host[41].wrappedHost.trafficgen  sinkRcvdPk:vector(packetBytes)  ETV
attr interpolationmode  none
attr source  sinkRcvdPk
attr title  "own packets received by sink, vector(packetBytes)"
vector 680  Net802154MultiGateway.host[48].wrappedHost.trafficgen  sinkRcvdPk:vector(packetBytes)  ETV
attr interpolationmode  none
attr source  sinkRcvdPk
attr title  "own packets received by sink, vector(packetBytes)"
vector 540  Net802154MultiGateway.host[38].wrappedHost.trafficgen  sinkRcvdPk:vector(packetBytes)  ETV
attr interpolationmode  none
attr source  sinkRcvdPk
attr title  "own packets received by sink, vector(packetBytes)"
vector 174  Net802154MultiGateway.host[12].wrappedHost.trafficgen  sentPk:vector(packetBytes)  ETV
attr interpolationmode  none
attr source  sentPk
attr title  "packets sent, vector(packetBytes)"
vector 178  Net802154MultiGateway.host[12].wrappedHost.trafficgen  PRR:vector  ETV
attr interpolationmode  none
attr source  count(sinkRcvdPk)/count(sentPk)
attr title  "PRR, vector"
vector 176  Net802154MultiGateway.host[12].wrappedHost.trafficgen  sinkRcvdPk:vector(packetBytes)  ETV
attr interpolationmode  none
attr source  sinkRcvdPk
attr title  "own packets received by sink, vector(packetBytes)"
vector 34  Net802154MultiGateway.host[2].wrappedHost.trafficgen  sentPk:vector(packetBytes)  ETV
attr interpolationmode  none
attr source  sentPk
attr title  "packets sent, vector(packetBytes)"
vector 38  Net802154MultiGateway.host[2].wrappedHost.trafficgen  PRR:vector  ETV
attr interpolationmode  none
attr source  count(sinkRcvdPk)/count(sentPk)
attr title  "PRR, vector"
vector 36  Net802154MultiGateway.host[2].wrappedHost.trafficgen  sinkRcvdPk:vector(packetBytes)  ETV
attr interpolationmode  none
attr source  sinkRcvdPk
attr title  "own packets received by sink, vector(packetBytes)"
vector 104  Net802154MultiGateway.host[7].wrappedHost.trafficgen  sentPk:vector(packetBytes)  ETV
attr interpolationmode  none
attr source  sentPk
attr title  "packets sent, vector(packetBytes)"
vector 108  Net802154MultiGateway.host[7].wrappedHost.trafficgen  PRR:vector  ETV
attr interpolationmode  none
attr source  count(sinkRcvdPk)/count(sentPk)
attr title  "PRR, vector"
vector 106  Net802154MultiGateway.host[7].wrappedHost.trafficgen  sinkRcvdPk:vector(packetBytes)  ETV
attr interpolationmode  none
attr source  sinkRcvdPk
attr title  "own packets received by sink, vector(packetBytes)"
vector 804  Net802154MultiGateway.host[57].wrappedHost.trafficgen  sentPk:vector(packetBytes)  ETV
attr interpolationmode  none
attr source  sentPk
attr title  "packets sent, vector(packetBytes)"
vector 808  Net802154MultiGateway.host[57].wrappedHost.trafficgen  PRR:vector  ETV
attr interpolationmode  none
attr source  count(sinkRcvdPk)/count(sentPk)
attr title  "PRR, vector"
vector 806  Net802154MultiGateway.host[57].wrappedHost.trafficgen  sinkRcvdPk:vector(packetBytes)  ETV
attr interpolationmode  none
attr source  sinkRcvdPk
attr title  "own packets received by sink, vector(packetBytes)"
vector 286  Net802154MultiGateway.host[20].wrappedHost.trafficgen  sentPk:vector(packetBytes)  ETV
attr interpolationmode  none
attr source  sentPk
attr title  "packets sent, vector(packetBytes)"
vector 290  Net802154MultiGateway.host[20].wrappedHost.trafficgen  PRR:vector  ETV
attr interpolationmode  none
attr source  count(sinkRcvdPk)/count(sentPk)
attr title  "PRR, vector"
vector 288  Net802154MultiGateway.host[20].wrappedHost.trafficgen  sinkRcvdPk:vector(packetBytes)  ETV
attr interpolationmode  none
attr source  sinkRcvdPk
attr title  "own packets received by sink, vector(packetBytes)"
vector 188  Net802154MultiGateway.host[13].wrappedHost.trafficgen  sentPk:vector(packetBytes)  ETV
attr interpolationmode  none
attr source  sentPk
attr title  "packets sent, vector(packetBytes)"
vector 192  Net802154MultiGateway.host[13].wrappedHost.trafficgen  PRR:vector  ETV
attr interpolationmode  none
attr source  count(sinkRcvdPk)/count(sentPk)
attr title  "PRR, vector"
vector 190  Net802154MultiGateway.host[13].wrappedHost.trafficgen  sinkRcvdPk:vector(packetBytes)  ETV
attr interpolationmode  none
attr source  sinkRcvdPk
attr title  "own packets received by sink, vector(packetBytes)"
vector 496  Net802154MultiGateway.host[35].wrappedHost.trafficgen  sentPk:vector(packetBytes)  ETV
attr interpolationmode  none
attr source  sentPk
attr title  "packets sent, vector(packetBytes)"
vector 500  Net802154MultiGateway.host[35].wrappedHost.trafficgen  PRR:vector  ETV
attr interpolationmode  none
attr source  count(sinkRcvdPk)/count(sentPk)
attr title  "PRR, vector"
vector 498  Net802154MultiGateway.host[35].wrappedHost.trafficgen  sinkRcvdPk:vector(packetBytes)  ETV
attr interpolationmode  none
attr source  sinkRcvdPk
attr title  "own packets received by sink, vector(packetBytes)"
vector 272  Net802154MultiGateway.host[19].wrappedHost.trafficgen  sentPk:vector(packetBytes)  ETV
attr interpolationmode  none
attr source  sentPk
attr title  "packets sent, vector(packetBytes)"
vector 276  Net802154MultiGateway.host[19].wrappedHost.trafficgen  PRR:vector  ETV
attr interpolationmode  none
attr source  count(sinkRcvdPk)/count(sentPk)
attr title  "PRR, vector"
vector 274  Net802154MultiGateway.host[19].wrappedHost.trafficgen  sinkRcvdPk:vector(packetBytes)  ETV
attr interpolationmode  none
attr source  sinkRcvdPk
attr title  "own packets received by sink, vector(packetBytes)"
vector 454  Net802154MultiGateway.host[32].wrappedHost.trafficgen  sentPk:vector(packetBytes)  ETV
attr interpolationmode  none
attr source  sentPk
attr title  "packets sent, vector(packetBytes)"
vector 458  Net802154MultiGateway.host[32].wrappedHost.trafficgen  PRR:vector  ETV
attr interpolationmode  none
attr source  count(sinkRcvdPk)/count(sentPk)
attr title  "PRR, vector"
vector 456  Net802154MultiGateway.host[32].wrappedHost.trafficgen  sinkRcvdPk:vector(packetBytes)  ETV
attr interpolationmode  none
attr source  sinkRcvdPk
attr title  "own packets received by sink, vector(packetBytes)"
vector 118  Net802154MultiGateway.host[8].wrappedHost.trafficgen  sentPk:vector(packetBytes)  ETV
attr interpolationmode  none
attr source  sentPk
attr title  "packets sent, vector(packetBytes)"
vector 122  Net802154MultiGateway.host[8].wrappedHost.trafficgen  PRR:vector  ETV
attr interpolationmode  none
attr source  count(sinkRcvdPk)/count(sentPk)
attr title  "PRR, vector"
vector 120  Net802154MultiGateway.host[8].wrappedHost.trafficgen  sinkRcvdPk:vector(packetBytes)  ETV
attr interpolationmode  none
attr source  sinkRcvdPk
attr title  "own packets received by sink, vector(packetBytes)"
vector 706  Net802154MultiGateway.host[50].wrappedHost.trafficgen  sentPk:vector(packetBytes)  ETV
attr interpolationmode  none
attr source  sentPk
attr title  "packets sent, vector(packetBytes)"
vector 710  Net802154MultiGateway.host[50].wrappedHost.trafficgen  PRR:vector  ETV
attr interpolationmode  none
attr source  count(sinkRcvdPk)/count(sentPk)
attr title  "PRR, vector"
vector 708  Net802154MultiGateway.host[50].wrappedHost.trafficgen  sinkRcvdPk:vector(packetBytes)  ETV
attr interpolationmode  none
attr source  sinkRcvdPk
attr title  "own packets received by sink, vector(packetBytes)"
vector 860  Net802154MultiGateway.host[61].wrappedHost.trafficgen  sentPk:vector(packetBytes)  ETV
attr interpolationmode  none
attr source  sentPk
attr title  "packets sent, vector(packetBytes)"
vector 864  Net802154MultiGateway.host[61].wrappedHost.trafficgen  PRR:vector  ETV
attr interpolationmode  none
attr source  count(sinkRcvdPk)/count(sentPk)
attr title  "PRR, vector"
vector 622  Net802154MultiGateway.host[44].wrappedHost.trafficgen  sentPk:vector(packetBytes)  ETV
attr interpolationmode  none
attr source  sentPk
attr title  "packets sent, vector(packetBytes)"
vector 626  Net802154MultiGateway.host[44].wrappedHost.trafficgen  PRR:vector  ETV
attr interpolationmode  none
attr source  count(sinkRcvdPk)/count(sentPk)
attr title  "PRR, vector"
vector 862  Net802154MultiGateway.host[61].wrappedHost.trafficgen  sinkRcvdPk:vector(packetBytes)  ETV
attr interpolationmode  none
attr source  sinkRcvdPk
attr title  "own packets received by sink, vector(packetBytes)"
vector 624  Net802154MultiGateway.host[44].wrappedHost.trafficgen  sinkRcvdPk:vector(packetBytes)  ETV
attr interpolationmode  none
attr source  sinkRcvdPk
attr title  "own packets received by sink, vector(packetBytes)"
vector 790  Net802154MultiGateway.host[56].wrappedHost.trafficgen  sentPk:vector(packetBytes)  ETV
attr interpolationmode  none
attr source  sentPk
attr title  "packets sent, vector(packetBytes)"
vector 794  Net802154MultiGateway.host[56].wrappedHost.trafficgen  PRR:vector  ETV
attr interpolationmode  none
attr source  count(sinkRcvdPk)/count(sentPk)
attr title  "PRR, vector"
vector 792  Net802154MultiGateway.host[56].wrappedHost.trafficgen  sinkRcvdPk:vector(packetBytes)  ETV
attr interpolationmode  none
attr source  sinkRcvdPk
attr title  "own packets received by sink, vector(packetBytes)"
5	1156046	220.095997049909	76
5	1156311	220.136261180535	76
5	1156467	220.144166937293	76
5	1156589	220.153320042624	76
5	1156850	220.195218049977	76
5	1156973	220.204582065939	76
5	1157039	220.235799196581	76
5	1157355	220.285198138503	76
5	1157588	220.294541239831	76
5	1157798	220.30367650288	76
5	1157926	220.314410786274	76
5	1158221	220.343192576384	76
5	1158421	220.363378613924	76
5	1158747	220.42449326764	76
5	1159003	220.444094393139	76
5	1159192	220.489430101474	76
5	1159417	220.524231516449	76
5	1159636	220.542118107213	76
5	1159828	220.571673012048	76
5	1160010	220.582991384184	76
5	1160515	220.666338227335	76
5	1160797	220.679895891839	76
5	1161038	220.689403785827	76
5	1161115	220.694138421512	76
5	1161362	220.760185907928	76
5	1161583	220.792086230216	76
5	1161642	220.798550897344	76
5	1161770	220.814031799157	76
5	1161854	220.823391555185	76
5	1162074	220.850700470762	76
5	1162362	220.912873662667	76
5	1162621	220.965142742067	76
5	1162821	220.981580407601	76
5	1162948	221.04070435321	76
5	1163134	221.068452107111	76
5	1163426	221.093248486522	76
5	1163613	221.123201516268	76
5	1163843	221.226504243234	76
5	1163905	221.233636145556	76
5	1164115	221.2709530549	76
5	1164227	221.299833930369	76
5	1164321	221.364365333965	76
5	1164446	221.381010556208	76
5	1164682	221.521941815585	76
5	1164866	221.542165666757	76
5	1164995	221.56292453023	76
5	1165402	221.591181251641	76
5	1165500	221.596670937709	76
5	1165579	221.603016046869	76
5	1165642	221.612404300189	76
5	1165852	221.684652718681	76
5	1166012	221.69605420965	76
5	1166135	221.704709625825	76
5	1166276	221.717504038154	76
5	1166546	221.831140766936	76
5	1166853	221.852687197102	76
5	1167005	221.869247033904	76
5	1167208	221.897512074262	76
5	1167376	221.91078933821	76
5	1167684	221.973014842781	76
5	1167821	221.978839509909	76
5	1167961	221.989328737879	76
5	1168148	222.006530957668	76
5	1168447	222.035811553402	76
5	1168624	222.051095346554	76
5	1168747	222.061226252621	76
5	1168936	222.096200269396	76
5	1169422	222.123231783546	76
5	1169507	222.127788495068	76
5	1169683	222.142122475861	76
5	1169843	222.16071364621	76
5	1169903	222.167498313338	76
5	1169962	222.172479350153	76
5	1170423	222.207012732381	76
5	1170518	222.211505041308	76
5	1170692	222.224326582648	76
5	1171014	222.337700615314	76
5	1171091	222.34652858595	76
5	1171545	222.38188116708	76
5	1171623	222.389077806564	76
5	1171765	222.447152764552	76
5	1171938	222.459471611012	76
5	1172245	222.491692957825	76
5	1172469	222.511404180172	76
5	1172702	222.532542401593	76
5	1172963	222.546589034197	76
5	1173313	222.557432593333	76
5	1173417	222.566500449128	76
5	1173631	222.57729970955	76
5	1173708	222.582992160391	76
5	1173911	222.681679900797	76
5	1174123	222.702066264094	76
5	1174429	222.848105258554	76
5	1174554	222.902386260218	76
5	1174743	222.949637624001	76
5	1174953	222.98559574158	76
5	1175139	223.003580791012	76
5	1175321	223.029587461109	76
5	1175496	223.063700971904	76
5	1175623	223.09173047318	76
5	1175916	223.127103955198	76
5	1176145	223.211180772108	76
5	1176320	223.280234359436	76
5	1176384	223.318870080597	76
5	1176615	223.346195646252	76
5	1176801	223.382902856502	76
5	1177009	223.408517990612	76
5	1177149	223.42130718881	76
5	1177381	223.443811702407	76
5	1177753	223.487113129201	76
5	1177827	223.492654934753	76
5	1178017	223.528451334956	76
5	1178394	223.585215319056	76
5	1178639	223.796392175196	76
5	1178987	223.932836237014	76
5	1179173	223.97918108425	76
5	1179300	224.000085763274	76
5	1179583	224.030810232009	76
5	1179694	224.049915921005	76
5	1179819	224.146395804022	76
5	1180004	224.162530192407	76
5	1180176	224.247412496178	76
5	1180303	224.360153866585	76
5	1180450	224.498501738997	76
5	1180539	224.503686406125	76
5	1180742	224.52097111178	76
5	1181023	224.547096616704	76
5	1181087	224.55940497544	76
5	1181286	224.641265982505	76
5	1181374	224.651045591508	76
5	1181619	224.697988663003	76
5	1181836	224.716017890137	76
5	1182069	224.773697210879	76
5	1182129	224.779182425279	76
5	1182347	224.827723229733	76
5	1182583	224.907319408185	76
5	1182895	224.933450832856	76
5	1182969	224.941890527462	76
5	1183199	224.966195705534	76
5	1183263	224.981226107939	76
5	1183500	225.080679086	76
5	1183976	225.108111871541	76
5	1184248	225.120478455868	76
5	1184492	225.133969101759	76
5	1184600	225.141666241813	76
5	1184723	225.150839773619	76
5	1185093	225.181907420473	76
5	1185207	225.189171578835	76
5	1185297	225.196848554264	76
5	1185520	225.216279881568	76
5	1185745	225.235664784893	76
5	1185913	225.249271094119	76
5	1186150	225.278694016702	76
5	1186386	225.322350578046	76
5	1186634	225.351748798795	76
5	1186805	225.364766176448	76
5	1186989	225.387985680508	76
5	1187055	225.490972797674	76
5	1187238	225.547630460925	76
5	1187475	225.59448429082	76
5	1187908	225.69149761802	76
5	1188178	225.701503975583	76
5	1188318	225.706441926869	76
5	1188433	225.713500802418	76
5	1188496	225.718977341081	76
5	1188618	225.728158984236	76
5	1188981	225.850895451941	76
5	1189250	225.867381223324	76
5	1189460	225.887619447559	76
5	1189519	225.892804114687	76
5	1189820	225.94114194544	76
5	1189957	225.955960652319	76
5	1190189	225.995575728324	76
5	1190379	226.045050458277	76
5	1190568	226.087135410728	76
5	1190771	226.106414029119	76
5	1190844	226.111407456668	76
5	1191015	226.125524620677	76
5	1191308	226.202848788609	76
5	1191503	226.220655183097	76
5	1191911	226.250004535254	76
5	1191983	226.257432789752	76
5	1192282	226.303431955899	76
5	1192354	226.309135866201	76
5	1192431	226.314632623027	76
5	1192583	226.321538824489	76
5	1192709	226.332522577588	76
5	1192836	226.373319374956	76
5	1192900	226.38856952811	76
5	1193084	226.431443074605	76
5	1193324	226.460700450369	76
5	1193595	226.476658155042	76
5	1193852	226.492743728703	76
5	1194068	226.507821603818	76
5	1194193	226.520604251522	76
5	1194436	226.541139615538	76
5	1194556	226.550123149379	76
5	1194816	226.602399096137	76
5	1194955	226.612901353377	76
5	1195144	226.648364385878	76
5	1195433	226.679941428992	76
5	1195613	226.701216737717	76
5	1195882	226.86078166747	76
5	1196047	226.86968530151	76
5	1196233	226.886618100979	76
5	1196603	226.959015526766	76
5	1196856	226.968732629877	76
5	1196974	226.973874556191	76
5	1197261	226.985145619663	76
5	1197371	226.993657148612	76
5	1197739	227.012532259232	76
5	1197864	227.021714498758	76
5	1198005	227.034326721081	76
5	1198247	227.100594261439	76
5	1198374	227.136406681929	76
5	1198758	227.169711012713	76
5	1198842	227.174642587041	76
5	1198982	227.18585613817	76
5	1199176	227.205497427171	76
5	1199412	227.269834289987	76
5	1199607	227.318501824329	76
5	1199829	227.336566597679	76
5	1199952	227.345620782867	76
5	1200190	227.408253544688	76
5	1200424	227.520150375349	76
5	1200615	227.589976402319	76
5	1200738	227.600491064657	76
5	1200968	227.661812206003	76
5	1201205	227.681143093541	76
5	1201433	227.692670061352	76
5	1201509	227.702823966633	76
5	1201743	227.738134902288	76
5	1201930	227.75549895617	76
5	1202163	227.789993673636	76
5	1202349	227.807610411445	76
5	1202476	227.82416827834	76
5	1202617	227.86833271739	76
5	1202791	227.880932239744	76
5	1203024	227.902185268078	76
5	1203209	227.927702386624	76
5	1203274	228.060189703496	76
5	1203814	228.109055655486	76
5	1204016	228.118812284275	76
5	1204123	228.124885719143	76
5	1204299	228.133898002951	76
5	1204499	228.143334386271	76
5	1204575	228.151522114785	76
5	1204702	228.172148161308	76
5	1204843	228.192525315552	76
5	1204982	228.207954829607	76
5	1205343	228.24912819653	76
5	1205595	228.264659177443	76
5	1205691	228.270163844571	76
5	1206103	228.282895827826	76
5	1206293	228.289536482643	76
5	1206490	228.299119728754	76
5	1206563	228.307492541923	76
5	1206951	228.335230717202	76
5	1207011	228.339708760128	76
5	1207140	228.34935945124	76
5	1207201	228.355156688193	76
5	1207440	228.470147123514	76
5	1207567	228.482412759838	76
5	1207753	228.514136508233	76
5	1208063	228.554539357989	76
5	1208172	228.560640686051	76
5	1208237	228.601343187552	76
5	1208447	228.685556934888	76
5	1208682	228.706987206221	76
5	1208744	228.712171873349	76
5	1209088	228.734247018575	76
5	1209232	228.746989574732	76
5	1209588	228.78353183416	76
5	1209689	228.792761313034	76
5	1209865	228.800845546918	76
5	1209990	228.810346726124	76
5	1210119	228.834621971509	76
5	1210366	228.895335952587	76
5	1210590	228.915345618676	76
5	1210962	228.976030088991	76
5	1211118	228.982445215834	76
5	1211292	228.996408947667	76
5	1211528	229.027219414185	76
5	1211714	229.050221383991	76
5	1211956	229.104873833708	76
5	1212191	229.129283707524	76
5	1212319	229.164877239309	76
5	1212549	229.243860739873	76
5	1212783	229.269413473671	76
5	1212982	229.281034045876	76
5	1213058	229.29036935646	76
5	1213241	229.302306255661	76
5	1213410	229.312813714231	76
5	1213779	229.360447803361	76
5	1214029	229.379029358943	76
5	1214153	229.391460492079	76
5	1214475	229.433128470211	76
5	1214623	229.448681797508	76
5	1214846	229.46651289024	76
5	1214909	229.473144963387	76
5	1215094	229.497396397832	76
5	1215222	229.524709879817	76
5	1215349	229.636211465529	76
5	1215711	229.664176311924	76
5	1215859	229.675746720009	76
5	1216155	229.701858875855	76
5	1216267	229.70767328921	76
5	1216406	229.723752774546	76
5	1216599	229.741875954713	76
5	1216727	229.784041883465	76
5	1216963	229.860785423226	76
5	1217264	230.022757640184	76
5	1217538	230.058793920181	76
5	1217665	230.095554762805	76
5	1217984	230.193083632617	76
5	1218171	230.210276396667	76
5	1218647	230.318635933356	76
5	1218785	230.332757950152	76
5	1219021	230.364099913313	76
5	1219254	230.415817069754	76
5	1219318	230.433626910573	76
5	1219490	230.492823325414	76
5	1219762	230.510790768625	76
5	1219870	230.51941482271	76
5	1220082	230.543714075885	76
5	1220311	230.698804309912	76
5	1220598	230.717486033672	76
5	1220770	230.733093418727	76
5	1220998	230.75066810964	76
5	1221123	230.761420776768	76
5	1221362	230.782826178405	76
5	1221598	230.833787241316	76
5	1221662	230.884554926421	76
5	1221787	230.904328555756	76
5	1221954	230.925739461292	76
5	1222308	230.989707554467	76
5	1222543	231.000579959997	76
5	1222650	231.006955346603	76
5	1222885	231.106222201726	76
5	1223210	231.171716439082	76
5	1223380	231.18754313618	76
5	1223508	231.215588103207	76
5	1223824	231.356076881188	76
5	1224257	231.395608134515	76
5	1224356	231.400841401147	76
5	1224496	231.411428428904	76
5	1224792	231.445251708414	76
5	1224914	231.454099261298	76
5	1225057	231.486099065934	76
5	1225196	231.497843671241	76
5	1225456	231.57519935222	76
5	1225689	231.617759846963	76
5	1225753	231.638156775623	76
5	1226019	231.676575109229	76
5	1226379	231.763700870669	76
5	1226453	231.771429032048	76
5	1226697	231.806539486404	76
5	1226923	231.8257209507	76
5	1227160	231.871173689445	76
5	1227389	231.893573468385	76
5	1227580	231.91539762092	76
5	1227909	231.990178091707	76
5	1228109	232.00476333237	76
5	1228322	232.018898173953	76
5	1228450	232.069247062653	76
5	1228699	232.108661188143	76
5	1228897	232.127032927622	76
5	1229197	232.174207559674	76
5	1229322	232.185232136306	76
5	1229617	232.250142999602	76
5	1229806	232.400781559541	76
5	1230042	232.452114075801	76
5	1230316	232.488725735617	76
5	1230588	232.500050236924	76
5	1230646	232.505931564078	76
5	1230833	232.532142554441	76
5	1231069	232.606917055786	76
5	1231336	232.640957285079	76
5	1231408	232.64833684308	76
5	1231626	232.667037655979	76
5	1231954	232.708758833619	76
5	1232093	232.724244778176	76
5	1232328	232.795611641857	76
5	1232387	232.801568203392	76
5	1232483	232.914867094199	76
5	1232798	232.939312247595	76
5	1232873	232.943753094606	76
5	1232931	232.948517917793	76
5	1233415	232.977892848078	76
5	1233581	232.986141060446	76
5	1233819	232.999474470438	76
5	1233959	233.013273269633	76
5	1234086	233.0435353331	76
5	1234316	233.096938587491	76
5	1234529	233.163273746732	76
5	1234743	233.190898321458	76
5	1235094	233.237222155842	76
5	1235278	233.25327492848	76
5	1235547	233.318946149587	76
5	1235741	233.348796059377	76
5	1235958	233.368576941964	76
5	1236192	233.399510997083	76
5	1236380	233.438120220357	76
5	1236728	233.472316073437	76
5	1236904	233.480298806545	76
5	1237014	233.486110602063	76
5	1237254	233.583603038187	76
5	1237456	233.598617173325	76
5	1237581	233.615479496883	76
5	1237708	233.642159587919	76
5	1237995	233.680826182066	76
5	1238191	233.701828233046	76
5	1238483	233.739502644864	76
5	1238695	233.752299865665	76
5	1238960	233.824089999096	76
5	1239424	233.861499528672	76
5	1239553	233.866155350092	76
5	1239872	233.87797070031	76
5	1240004	233.885868984199	76
5	1240198	233.897627330732	76
5	1240327	233.905271123039	76
5	1240466	233.917454301391	76
5	1240698	233.933706449722	76
5	1240825	233.955701334229	76
5	1240955	234.020337257223	76
5	1241185	234.043557315573	76
5	1241380	234.074918275609	76
5	1241676	234.095925573337	76
5	1241737	234.101430240465	76
5	1242012	234.130526150153	76
5	1242212	234.150270875547	76
5	1242371	234.183671515482	76
5	1242435	234.205134075953	76
5	1242774	234.233297082647	76
5	1242898	234.243029142204	76
5	1243139	234.286362378223	76
5	1243235	234.402419463265	76
5	1243466	234.538914042287	76
5	1243530	234.552434784339	76
5	1243590	234.558419624913	76
5	1243978	234.654393429987	76
5	1244037	234.659898097115	76
5	1244365	234.707994351405	76
5	1244502	234.722143796863	76
5	1244686	234.79556565982	76
5	1245026	234.837032249971	76
5	1245253	234.850658637772	76
5	1245613	234.872319090065	76
5	1245840	234.888070796954	76
5	1245962	234.894855464082	76
5	1246178	234.908039291609	76
5	1246390	234.920308226258	76
5	1246773	234.942943999207	76
5	1246953	234.958796326914	76
5	1247093	234.970182641091	76
5	1247338	235.111615260453	76
5	1247468	235.130760299239	76
5	1247695	235.152656035724	76
5	1247822	235.187562480037	76
5	1248008	235.260018900936	76
5	1248072	235.281602810035	76
5	1248197	235.311780342019	76
5	1248338	235.357845015149	76
5	1248517	235.369888381588	76
5	1248656	235.383359284206	76
5	1248839	235.478693128278	76
5	1249025	235.514310753435	76
5	1249209	235.581057954248	76
5	1249452	235.628380047132	76
5	1249957	235.713556045018	76
5	1250058	235.719699767972	76
5	1250168	235.724900712146	76
5	1250319	235.739510099039	76
5	1250670	235.757045040857	76
5	1250779	235.765742692516	76
5	1250908	235.783601433889	76
5	1251043	235.794162260671	76
5	1251337	235.815640111327	76
5	1251461	235.827272525392	76
5	1251588	235.853105954948	76
5	1251652	235.866631135135	76
5	1251833	235.914008080909	76
5	1252026	235.953220690877	76
5	1252089	235.964952039889	76
5	1252392	236.014223914682	76
5	1252452	236.019475733231	76
5	1252781	236.069461556398	76
5	1252840	236.073922528137	76
5	1252906	236.112964107905	76
5	1253350	236.145843858851	76
5	1253433	236.152782101853	76
5	1253522	236.157786429686	76
5	1253831	236.174452096558	76
5	1254006	236.191188365672	76
5	1254240	236.245864602079	76
5	1254490	236.37770722268	76
5	1254629	236.391781256012	76
5	1254815	236.438185402836	76
5	1254942	236.46658191608	76
5	1255125	236.488207581163	76
5	1255358	236.521322017568	76
5	1255603	236.553940095072	76
5	1255843	236.57491433028	76
5	1255996	236.590706775684	76
5	1256149	236.605295931436	76
5	1256317	236.618003067091	76
5	1256602	236.647039336567	76
5	1256788	236.663279463103	76
5	1256915	236.733775097176	76
5	1257117	236.79683059228	76
5	1257197	236.803178331794	76
5	1257255	236.807791048308	76
5	1257492	236.830444043042	76
5	1257725	236.856134572476	76
5	1257962	236.874104937484	76
5	1258148	236.890459291376	76
5	1258275	236.939678543968	76
5	1258397	236.949912103138	76
5	1258579	236.96194751234	76
5	1258818	236.976350912865	76
5	1258892	236.985345298123	76
5	1259113	237.001498811185	76
5	1259176	237.00672506278	76
5	1259236	237.011554560363	76
5	1259649	237.043436809185	76
5	1259738	237.051891074224	76
5	1259933	237.072683374703	76
5	1260360	237.093412750452	76
5	1260533	237.102012693799	76
5	1260766	237.115909199481	76
5	1260827	237.125091926179	76
5	1261015	237.164507508289	76
5	1261074	237.170803816528	76
5	1261295	237.233622056943	76
5	1261666	237.25009148613	76
5	1261740	237.257704447808	76
5	1261805	237.287902261926	76
5	1261867	237.311365687054	76
5	1261992	237.347899905454	76
5	1262166	237.403348550418	76
5	1262427	237.428325186397	76
5	1262486	237.432869853525	76
5	1262816	237.459584105149	76
5	1262975	237.468730571469	76
5	1263049	237.476447654592	76
5	1263454	237.515626090361	76
5	1263587	237.524284464494	76
5	1263787	237.541686059685	76
5	1263977	237.591384416722	76
5	1264184	237.666277631544	76
5	1264443	237.681325458277	76
5	1264580	237.694593413127	76
5	1264896	237.723223902105	76
5	1264971	237.733585859468	76
5	1265222	237.756585128533	76
5	1265440	237.772711685391	76
5	1265564	237.782163956812	76
5	1265625	237.791451382509	76
5	1265931	237.877019065511	76
5	1266066	237.884603131712	76
5	1266354	237.899699745496	76
5	1266412	237.90431857359	76
5	1266647	237.958940256666	76
5	1266833	237.983572235047	76
5	1267062	238.039291793465	76
5	1267299	238.164065937962	76
5	1267538	238.193129214498	76
5	1267831	238.218594441178	76
5	1267992	238.232645207474	76
5	1268209	238.249630594434	76
5	1268443	238.306464146602	76
5	1268618	238.330751202862	76
5	1268752	238.340302654294	76
5	1268891	238.351647321422	76
5	1269256	238.388185430106	76
5	1269403	238.393477381335	76
5	1269483	238.402183955256	76
5	1269721	238.446252679244	76
5	1270005	238.527385120903	76
5	1270358	238.542158550611	76
5	1270671	238.555284797639	76
5	1270809	238.560917624421	76
5	1270895	238.565875381723	76
5	1270952	238.570359119908	76
5	1271184	238.59477662121	76
5	1271312	238.624174449019	76
5	1271512	238.653860422199	76
5	1271711	238.671304702953	76
5	1271841	238.69497464409	76
5	1271968	238.735947389335	76
5	1272154	238.761107088239	76
5	1272518	238.785283627661	76
5	1272593	238.793282149169	76
5	1272720	238.87021714023	76
5	1272847	238.891636988877	76
5	1273217	238.960264160293	76
5	1273408	238.972683357331	76
5	1273660	238.985115888466	76
5	1273809	238.993373326016	76
5	1273935	239.003935211292	76
5	1274248	239.202582962456	76
5	1274323	239.211389668688	76
5	1274385	239.218870688119	76
5	1274523	239.259276538419	76
5	1274868	239.278128351406	76
5	1275012	239.29222937626	76
5	1275139	239.354246446934	76
5	1275206	239.423323246533	76
5	1275443	239.471447136036	76
5	1275716	239.48689880659	76
5	1276016	239.495600981727	76
5	1276395	239.508243906182	76
5	1276485	239.513165292353	76
5	1276697	239.527643662563	76
5	1276770	239.536452849762	76
5	1276897	239.580498851095	76
5	1277092	239.595721291441	76
5	1277231	239.610184031618	76
5	1277417	239.635707276598	76
5	1277544	239.678604973311	76
5	1277783	239.699480938592	76
5	1278018	239.737820345875	76
5	1278205	239.811094023928	76
5	1278440	239.858081134851	76
5	1278517	239.866232291297	76
5	1278688	239.879158958345	76
5	1278873	239.900326845471	76
5	1279001	239.9401504406	76
5	1279187	239.979808553494	76
5	1279435	240.006381560986	76
5	1279795	240.031395924261	76
5	1279948	240.037153557546	76
5	1280071	240.043692049445	76
5	1280219	240.049321918096	76
5	1280530	240.063938740115	76
5	1280645	240.071411772404	76
5	1280912	240.090089147941	76
5	1281162	240.155380595258	76
5	1281344	240.218182249291	76
5	1281590	240.252056314935	76
5	1281838	240.270455862972	76
5	1282072	240.314767052381	76
5	1282316	240.344002658996	76
5	1282546	240.364526354374	76
5	1282764	240.373666941917	76
5	1282999	240.389326991269	76
5	1283297	240.407924200581	76
5	1283494	240.423660137229	76
5	1283737	240.438813013909	76
5	1283991	240.459292122941	76
5	1284118	240.481221004678	76
5	1284182	240.500312910671	76
5	1284422	240.534834578801	76
5	1284573	240.549210733106	76
5	1284943	240.618373837934	76
5	1285068	240.630231060211	76
5	1285132	240.68210326341	76
5	1285458	240.711880380634	76
5	1285567	240.719619553674	76
5	1285767	240.739025507636	76
5	1286042	240.76766433541	76
5	1286318	240.782954254386	76
5	1286401	240.787818921514	76
5	1286565	240.802788623551	76
5	1286719	240.816977880026	76
5	1286779	240.822395599846	76
5	1287081	240.854929050828	76
5	1287191	240.863819268857	76
5	1287398	240.988947268092	76
5	1287525	241.003936795789	76
5	1287883	241.036743185257	76
5	1287959	241.045235656621	76
5	1288368	241.166936503602	76
5	1288459	241.171266862875	76
5	1288726	241.186243795669	76
5	1288967	241.197391280596	76
5	1289256	241.219935518716	76
5	1289347	241.228729000311	76
5	1289546	241.336674329155	76
5	1289685	241.347036102513	76
5	1289995	241.37842328715	76
5	1290185	241.398772270659	76
5	1290312	241.415119937713	76
5	1290470	241.430013792735	76
5	1290581	241.513093505019	76
5	1290915	241.605303639777	76
5	1291166	241.650193327183	76
5	1291290	241.659140493925	76
5	1291407	241.670561994311	76
5	1291690	241.724880188291	76
5	1292021	241.879404418227	76
5	1292190	241.893416134027	76
5	1292341	241.908060083253	76
5	1292580	241.931801829257	76
5	1292695	241.947218393522	76
5	1292880	241.964841410498	76
5	1292944	241.983398571099	76
5	1293004	241.990332933227	76
5	1293243	242.065934228979	76
5	1293490	242.093952717094	76
5	1293660	242.107212697715	76
5	1293846	242.12562297165	76
5	1294044	242.139970240783	76
5	1294185	242.152699597752	76
5	1294415	242.179894430387	76
5	1294716	242.225568667686	76
5	1294924	242.236444814704	76
5	1295123	242.246792060032	76
5	1295463	242.257731093506	76
5	1295584	242.26335876349	76
5	1295740	242.271452738968	76
5	1295843	242.278697539314	76
5	1296117	242.300145331464	76
5	1296243	242.315410787771	76
5	1296482	242.364417263898	76
5	1296747	242.385176203897	76
5	1297155	242.44444356394	76
5	1297217	242.451924641568	76
5	1297344	242.506666839821	76
5	1297565	242.633547728842	76
5	1297866	242.685247975276	76
5	1297926	242.693567148494	76
5	1298109	242.735153602862	76
5	1298496	242.785461158433	76
5	1298555	242.791925825561	76
5	1298830	242.832848897288	76
5	1298967	242.846838779889	76
5	1299078	242.892866271528	76
5	1299523	242.924787941131	76
5	1299583	242.934813919404	76
5	1299644	242.941674468948	76
5	1299906	242.975911284791	76
5	1300146	243.002290163102	76
5	1300270	243.012503509532	76
5	1300504	243.042684496454	76
5	1300624	243.052949321681	76
5	1300805	243.067395434159	76
5	1301030	243.081664195979	76
5	1301103	243.087820297055	76
5	1301492	243.195762663862	76
5	1301555	243.2075162047	76
5	1301822	243.231779143241	76
5	1302226	243.247590483566	76
5	1302715	243.26252347577	76
5	1302802	243.267093210846	76
5	1302880	243.274498537309	76
5	1302969	243.284875583411	76
5	1303236	243.328637726613	76
5	1303598	243.389556962926	76
5	1303658	243.394421630054	76
5	1303982	243.481224445175	76
5	1304381	243.540413380798	76
5	1304569	243.553914924977	76
5	1304753	243.57022121331	76
5	1304920	243.617559659828	76
5	1305047	243.64403909071	76
5	1305292	243.738934667765	76
5	1305418	243.74987354974	76
5	1305676	243.867265233939	76
5	1305740	243.887961427377	76
5	1305802	243.898758451107	76
5	1306077	243.943999474404	76
5	1306263	243.981393247759	76
5	1306531	244.036243727823	76
5	1306855	244.077110648211	76
5	1307222	244.165961858299	76
5	1307585	244.21231779575	76
5	1307717	244.218443768485	76
5	1307827	244.225484624307	76
5	1307955	244.264550926626	76
5	1308129	244.312629528753	76
5	1308350	244.370787441287	76
5	1308766	244.39524275177	76
5	1308924	244.401067418898	76
5	1309076	244.416349218663	76
5	1309468	244.479383214996	76
5	1309617	244.491541675064	76
5	1309710	244.500483666776	76
5	1309883	244.537377093726	76
5	1310160	244.575578688612	76
5	1310269	244.581227224195	76
5	1310336	244.644716955797	76
5	1310549	244.702536075643	76
5	1310708	244.709909893976	76
5	1310895	244.721238979768	76
5	1310955	244.727156082136	76
5	1311078	244.736829920993	76
5	1311176	244.766415095993	76
5	1311301	244.792578397936	76
5	1311552	244.819322579227	76
5	1311764	244.837286939102	76
5	1311828	244.902867225906	76
5	1312012	245.108719456368	76
5	1312076	245.130828707446	76
5	1312369	245.178231416484	76
5	1312502	245.185016083612	76
5	1312617	245.19356811297	76
5	1312821	245.212279883154	76
5	1313246	245.261302076321	76
5	1313322	245.268015175733	76
5	1313382	245.272986992424	76
5	1313578	245.297534307782	76
5	1313806	245.317382176737	76
5	1313928	245.377380664419	76
5	1314166	245.391905433572	76
5	1314271	245.398648157033	76
5	1314564	245.446806350367	76
5	1314734	245.460940133628	76
5	1314926	245.494870549945	76
5	1315107	245.509709593783	76
5	1315345	245.600022933451	76
5	1315409	245.702480049832	76
5	1315646	245.751466656797	76
5	1315708	245.75871126771	76
5	1315772	245.779120520428	76
5	1316081	245.808715799799	76
5	1316390	245.82337478319	76
5	1316565	245.832293568847	76
5	1316828	245.844988392839	76
5	1316936	245.84989400226	76
5	1317236	245.941781669562	76
5	1317409	245.952903546282	76
5	1317474	245.982058661776	76
5	1317655	245.998554089589	76
5	1317851	246.024243931872	76
5	1318211	246.042436035813	76
5	1318353	246.057276483337	76
5	1318546	246.080905571864	76
5	1318682	246.093135521486	76
5	1318968	246.13362234357	76
5	1319175	246.153367010698	76
5	1319428	246.172168324825	76
5	1319534	246.181204812421	76
5	1320107	246.250907931559	76
5	1320192	246.255373525476	76
5	1320266	246.264142403857	76
5	1320508	246.418857038293	76
5	1320572	246.481280806004	76
5	1320697	246.534097501915	76
5	1321074	246.655516342502	76
5	1321174	246.665435564953	76
5	1321261	246.670794585135	76
5	1321491	246.688651951313	76
5	1321747	246.709630308666	76
5	1321860	246.71585539097	76
5	1322166	246.73070574857	76
5	1322345	246.736316998563	76
5	1322466	246.745900113266	76
5	1322813	246.800336174048	76
5	1322997	246.815589553242	76
5	1323181	246.837105472051	76
5	1323416	246.884376938304	76
5	1323614	246.936039893006	76
5	1323817	246.950541852619	76
5	1324015	246.963983810385	76
5	1324185	246.978935858943	76
5	1324423	246.996358580608	76
5	1324651	247.014144645196	76
5	1324835	247.037380897869	76
5	1325070	247.130522779704	76
5	1325312	247.196285244994	76
5	1325439	247.283356965192	76
5	1325675	247.366440854015	76
5	1325859	247.446157305587	76
5	1325984	247.48455674999	76
5	1326158	247.496471626703	76
5	1326457	247.517219296161	76
5	1326518	247.525660363773	76
5	1326903	247.5580713705	76
5	1327117	247.57064614856	76
5	1327176	247.576588733138	76
5	1327310	247.600875386898	76
5	1327496	247.619190210296	76
5	1327732	247.665205186049	76
5	1327918	247.687804723869	76
5	1328104	247.7192797303	76
5	1328389	247.74442876265	76
5	1328573	247.761343493443	76
5	1328700	247.787674621812	76
5	1328998	247.826112724122	76
5	1329125	247.842495128352	76
5	1329360	247.869098668667	76
5	1329484	247.880167756014	76
5	1329745	247.941376519933	76
5	1329808	247.947521187061	76
5	1330034	247.969942037857	76
5	1330549	248.011066496091	76
5	1330726	248.020707104762	76
5	1330853	248.030692477471	76
5	1330976	248.042596473947	76
5	1331227	248.066484346074	76
5	1331432	248.080230951432	76
5	1331690	248.096429058891	76
5	1331799	248.105221447628	76
5	1331864	248.120551854469	76
5	1332173	248.144225332107	76
5	1332473	248.168066636434	76
5	1332532	248.175049407117	76
5	1332596	248.320464495266	76
5	1332658	248.379825819554	76
5	1333016	248.449749199943	76
5	1333078	248.455809510573	76
5	1333314	248.548339693657	76
5	1333497	248.684578351622	76
5	1333888	248.727793993548	76
5	1334083	248.73820168804	76
5	1334239	248.747588173336	76
5	1334378	248.761741688751	76
5	1334606	248.817083994412	76
5	1334847	248.868967899243	76
5	1334974	248.900561729538	76
5	1335160	248.920251984235	76
5	1335399	248.951789373192	76
5	1335463	248.962746742647	76
5	1335697	249.034097000277	76
5	1335885	249.056766538525	76
5	1336240	249.116586783126	76
5	1336364	249.129067450254	76
5	1336600	249.173839873419	76
5	1336664	249.240341774726	76
5	1336726	249.311202769909	76
5	1337068	249.362637220458	76
5	1337187	249.371274382113	76
5	1337313	249.38328342468	76
5	1337509	249.402210641149	76
5	1337648	249.416531046111	76
5	1337778	249.442201840853	76
5	1338011	249.465709995303	76
5	1338138	249.510144474322	76
5	1338372	249.573757348546	76
5	1338604	249.600370306533	76
5	1338731	249.619599789522	76
[...]
850	2003592	361.673326287124	0.95774647887324
850	2003958	361.696399774532	0.97183098591549
850	2004648	361.800382435529	0.95833333333333
850	2004875	361.822495922937	0.97222222222222
850	2022304	364.683498786637	0.95890410958904
850	2022670	364.707212274045	0.97260273972603
850	2096637	376.626612013235	0.95945945945946
850	2096890	376.650005500643	0.97297297297297
850	2113904	380.116493266453	0.96
850	2114174	380.135726753861	0.97333333333333
850	2135763	383.368444125917	0.96052631578947
850	2136021	383.391517613325	0.97368421052632
850	2157681	386.498637153134	0.96103896103896
850	2158169	386.523310640542	0.97402597402597
850	2163309	387.645780683871	0.96153846153846
850	2163725	387.670902171279	0.97435897435897
850	2185137	391.400747319181	0.9620253164557
850	2185480	391.424780806589	0.9746835443038
850	2190927	392.503790844072	0.9625
850	2191257	392.52590433148	0.975
850	2195067	393.275331850154	0.96296296296296
850	2195418	393.298085337562	0.97530864197531
850	2235840	399.329115828174	0.96341463414634
850	2236119	399.349309315582	0.97560975609756
850	2237346	399.512522311382	0.96385542168675
850	2237671	399.53431579879	0.97590361445783
850	2261368	404.015518064559	0.96428571428571
850	2261817	404.047119551967	0.97619047619048
850	2265636	404.66021461172	0.96470588235294
850	2266214	404.701944099128	0.97647058823529
850	2278877	407.163349634222	0.96511627906977
850	2279371	407.18810312163	0.97674418604651
850	2282006	407.519640170908	0.96551724137931
850	2282424	407.538553658316	0.97701149425287
850	2285650	407.961120836424	0.96590909090909
850	2285913	407.983874323832	0.97727272727273
850	2296209	410.347742616806	0.96629213483146
850	2296654	410.374096104214	0.97752808988764
850	2309663	412.717032162911	0.96666666666667
850	2309876	412.740425650319	0.97777777777778
850	2313799	413.306024410196	0.96703296703297
850	2313998	413.327817897604	0.97802197802198
850	2323763	414.704404053779	0.96739130434783
850	2323957	414.722997541187	0.97826086956522
850	2328517	415.633816370139	0.96774193548387
850	2329025	415.672442524675	0.97849462365591
850	2334714	416.567194892646	0.96808510638298
850	2335022	416.587708380054	0.97872340425532
850	2343866	418.107282647641	0.96842105263158
850	2344060	418.128756135049	0.97894736842105
850	2398383	427.549894212567	0.96875
850	2398578	427.571367699975	0.97916666666667
850	2414941	430.02965213777	0.96907216494845
850	2415360	430.061845625178	0.97938144329897
850	2415812	430.131925033275	0.96938775510204
850	2416049	430.156598520683	0.97959183673469
850	2422968	431.237444134186	0.96969696969697
850	2423518	431.259237621594	0.97979797979798
850	2423881	431.305570312038	0.97
850	2424581	431.344611799446	0.98
860	1196284	226.947579172665	76
860	1201546	227.718261445076	76
860	1205148	228.241265720231	76
860	1210628	228.954556631779	76
860	1216765	229.839631966014	76
860	1222228	230.985801889391	76
860	1259286	237.024129617012	76
860	1267101	238.14387248075	76
860	1268481	238.319149197082	76
860	1291777	241.864502676815	76
860	1306997	244.141928401087	76
860	1328752	247.81231767114	76
860	1335499	249.010383543065	76
860	1347379	251.276630729547	76
860	1362862	253.796090288871	76
860	1383374	257.193326386776	76
860	1394448	259.417849747876	76
860	1395507	259.601649835463	76
860	1403219	260.896018734745	76
860	1421586	263.754359706333	76
860	1431175	265.171340909747	76
860	1444085	267.84939562318	76
860	1452337	269.118669613051	76
860	1480889	273.20319787508	76
860	1491662	275.413535647811	76
860	1497798	276.774218950002	76
860	1502736	277.542481114676	76
860	1529833	281.779772792883	76
860	1561677	286.590600453589	76
860	1562334	286.630132722545	76
860	1587270	290.704098126824	76
860	1595433	291.969574022789	76
860	1597121	292.223729765524	76
860	1598625	292.450069734256	76
860	1601996	292.874389039266	76
860	1657496	303.4201178797	76
860	1697575	310.131355283577	76
860	1709503	312.302681215792	76
860	1732460	315.514546989205	76
860	1733661	315.711644154271	76
860	1735954	316.247489985398	76
860	1743518	317.806687613279	76
860	1765311	321.393194149611	76
860	1775658	323.459429165472	76
860	1776160	323.511735016517	76
860	1803423	328.189807968836	76
860	1818052	331.191864341997	76
860	1829498	332.576086674183	76
860	1835591	333.633433602323	76
860	1844304	334.895139836222	76
860	1848575	335.620147567489	76
860	1850138	335.991547823748	76
860	1935233	350.342717435177	76
860	1940736	351.223861219896	76
860	1954835	353.252487288644	76
860	1958879	354.00304743043	76
860	1982978	358.045052933257	76
860	2000732	361.184453881336	76
860	2002624	361.391615181905	76
860	2037502	367.447417087223	76
860	2046865	368.712531122015	76
860	2058838	370.746158462354	76
860	2064518	371.808485184365	76
860	2068772	372.300024294183	76
860	2075037	373.215817513391	76
860	2086178	374.888084705874	76
860	2087132	375.006580449865	76
860	2097097	376.698222672719	76
860	2108151	378.982704948424	76
860	2147400	385.114457207056	76
860	2148383	385.234473951032	76
860	2161234	387.276307809292	76
860	2166439	388.429075915005	76
860	2187417	391.954060649815	76
860	2205951	394.638816825288	76
860	2223274	397.115696287936	76
860	2247470	401.50417944186	76
860	2247964	401.564224624914	76
860	2248263	401.655931213688	76
860	2251956	402.2901325142	76
860	2267635	405.088404307842	76
860	2277778	407.000043857183	76
860	2287920	408.465759077469	76
860	2293211	409.875204545554	76
860	2297728	410.607862317803	76
860	2301615	411.470216684588	76
860	2322713	414.551409008772	76
860	2338343	417.228284172534	76
860	2349319	419.890809405615	76
860	2365646	422.301116386593	76
860	2394390	426.929079770542	76
860	2397001	427.337401215916	76
860	2406489	428.90908682553	76
860	2408344	428.999674577262	76
860	2408469	429.004907737908	76
860	2410647	429.408318925668	76
860	2423870	431.301094233289	76
860	2451616	435.78754151902	76
860	2463830	437.821326113516	76
860	2481069	440.698620693693	76
862	1196856	226.968732629877	76
862	1201743	227.738134902288	76
862	1205691	228.270163844571	76
862	1210962	228.976030088991	76
862	1216963	229.860785423226	76
862	1222650	231.006955346603	76
862	1259738	237.051891074224	76
862	1267299	238.164065937962	76
862	1268891	238.351647321422	76
862	1292190	241.893416134027	76
862	1307222	244.165961858299	76
862	1329125	247.842495128352	76
862	1335697	249.034097000277	76
862	1347774	251.304264186759	76
862	1363304	253.823723746083	76
862	1383656	257.215759843988	76
862	1394999	259.446619205088	76
862	1395705	259.623763292675	76
862	1403610	260.918132191957	76
862	1421983	263.776793163545	76
862	1431421	265.193454366959	76
862	1444282	267.871189080392	76
862	1453035	269.157231737391	76
862	1481087	273.225631332292	76
862	1492035	275.444769105023	76
862	1498227	276.801580407214	76
862	1502936	277.563634571888	76
862	1530086	281.801246250095	76
862	1561926	286.610793910801	76
862	1562949	286.657766179757	76
862	1587468	290.725571584036	76
862	1595631	291.991367480001	76
862	1597578	292.249491222736	76
862	1598823	292.472823191468	76
862	1602229	292.898742496478	76
862	1657747	303.441271336912	76
862	1697909	310.160908740789	76
862	1709744	312.326714673004	76
862	1732702	315.536660446417	76
862	1733919	315.733117611483	76
862	1736152	316.27024344261	76
862	1744042	317.833361070491	76
862	1765597	321.413067606823	76
862	1776075	323.488022622684	76
862	1776416	323.535448473729	76
862	1803624	328.213201426048	76
862	1818596	331.217497799209	76
862	1829847	332.598520131395	76
862	1835789	333.656507059535	76
862	1844747	334.921493293434	76
862	1848775	335.642581024701	76
862	1850336	336.01430128096	76
862	1935431	350.363870892389	76
862	1941040	351.245654677108	76
862	1955153	353.273640745856	76
862	1959338	354.03258555477	76
862	1983218	358.068446390469	76
862	2001143	361.206567338548	76
862	2002822	361.414688639117	76
862	2047377	368.742532579227	76
862	2059165	370.771471919566	76
862	2064720	371.830278641577	76
862	2069210	372.322457751395	76
862	2075661	373.243450970603	76
862	2086402	374.910518163086	76
862	2087478	375.034533907077	76
862	2097325	376.720976129931	76
862	2108479	379.002898405636	76
862	2147598	385.136250664268	76
862	2148762	385.264667408244	76
862	2161463	387.296501266504	76
862	2167208	388.463829372217	76
862	2187968	391.986942107027	76
862	2206149	394.6602902825	76
862	2223995	397.147025745148	76
862	2247788	401.524052899072	76
862	2248163	401.584098082126	76
862	2248507	401.6780446709	76
862	2252579	402.334645971412	76
862	2267832	405.110197765054	76
862	2277975	407.021837314395	76
862	2288117	408.487232534681	76
862	2293582	409.897638002766	76
862	2298039	410.631255775015	76
862	2301966	411.4936101418	76
862	2323210	414.580450465984	76
862	2338605	417.250717629746	76
862	2349971	419.921002862827	76
862	2365951	422.321309843805	76
862	2394709	426.956761227754	76
862	2397258	427.359514673128	76
862	2407374	428.946064282742	76
862	2409260	429.052733862248	76
862	2409386	429.065534529376	76
862	2411020	429.43923238288	76
862	2424303	431.323527690501	76
862	2451814	435.810294976232	76
862	2464417	437.843759570728	76
862	2481515	440.735518150905	76
863	5254	30	76
863	19879	31.032406909874	76
863	36060	33.525632687351	76
863	37235	33.800213831873	76
863	60590	37.67858791053	76
863	63086	38.209704895496	76
863	69202	39.287361242075	76
863	79804	41.181573187056	76
863	142492	51.717291644432	76
863	152660	53.330521866219	76
863	182293	59.035517052049	76
863	204131	62.963823831027	76
863	204434	63.029471265905	76
863	239970	69.780347690656	76
863	253774	72.000591138352	76
863	296610	78.840233348688	76
863	333224	84.132981762785	76
863	349987	87.101206883542	76
863	357471	88.234382391025	76
863	396435	94.167450657706	76
863	473877	105.54534849466	76
863	479077	106.398100475789	76
863	484087	107.251960889126	76
863	501268	110.152817203602	76
863	504499	110.939249995342	76
863	512257	112.575558461704	76
863	517708	113.275162333394	76
863	519321	113.558324056962	76
863	523838	114.190336739527	76
863	526857	114.586402201138	76
863	535522	115.999894407324	76
863	553598	119.179276913799	76
863	564074	120.923137161197	76
863	569687	121.95202432033	76
863	600295	127.851612812671	76
863	601946	128.115711617518	76
863	607811	129.284987084198	76
863	608654	129.315864793736	76
863	609548	129.375274799449	76
863	634880	133.490648517612	76
863	636624	133.816963909162	76
863	650879	136.213734680931	76
863	662244	138.36687445332	76
863	663135	138.511705537508	76
863	681173	141.84036642672	76
863	683649	142.102457857565	76
863	707708	145.943692753362	76
863	713439	146.992821473496	76
863	720278	148.229413311029	76
863	739632	151.169903874257	76
863	752817	153.256012249421	76
863	771250	156.103092043153	76
863	772463	156.276158309701	76
863	775008	156.763948447084	76
863	785621	158.129444225306	76
863	819406	163.682208610978	76
863	821442	164.158856109701	76
863	836640	166.808067593802	76
863	881921	174.493201200573	76
863	884158	175.140210815655	76
863	903975	178.602109554178	76
863	908054	179.173112095349	76
863	910687	179.909676619959	76
863	926306	182.554480741126	76
863	953888	186.974895354859	76
863	979317	191.281167336793	76
863	986018	192.418290054982	76
863	1016634	196.806697112084	76
863	1020345	197.269289654514	76
863	1040455	200.95132654899	76
863	1063352	204.814075627946	76
863	1069734	205.89397714381	76
863	1079405	207.387449351347	76
863	1089998	208.903647476109	76
863	1124389	214.298544445916	76
863	1146890	218.135026777736	76
863	2482390	440.832457978999	76
863	2489309	441.92735898761	76
863	2493511	442.498301458276	76
863	2493928	442.522664658	76
863	2499133	443.177862162293	76
863	2508376	444.49603703976	76
863	2518704	446.408882508178	76
863	2526118	447.76486451714	76
863	2561357	454.162822769741	76
863	2574214	456.349323659968	76
863	2600989	460.948333204434	76
863	2651643	469.886132082657	76
863	2682830	474.563755759871	76
863	2683089	474.583620485063	76
863	2693797	477.057839087781	76
863	2717210	481.138285406754	76
863	2725451	482.51253819283	76
863	2731394	483.403621556054	76
863	2764755	489.011931057906	76
864	1196284	226.947579172665	-nan
864	1196856	226.968732629877	1
864	1201546	227.718261445076	0.5
864	1201743	227.738134902288	1
864	1205148	228.241265720231	0.66666666666667
864	1205691	228.270163844571	1
864	1210628	228.954556631779	0.75
864	1210962	228.976030088991	1
864	1216765	229.839631966014	0.8
864	1216963	229.860785423226	1
864	1222228	230.985801889391	0.83333333333333
864	1222650	231.006955346603	1
864	1259286	237.024129617012	0.85714285714286
864	1259738	237.051891074224	1
864	1267101	238.14387248075	0.875
864	1267299	238.164065937962	1
864	1268481	238.319149197082	0.88888888888889
864	1268891	238.351647321422	1
864	1291777	241.864502676815	0.9
864	1292190	241.893416134027	1
864	1306997	244.141928401087	0.90909090909091
864	1307222	244.165961858299	1
864	1328752	247.81231767114	0.91666666666667
864	1329125	247.842495128352	1
864	1335499	249.010383543065	0.92307692307692
864	1335697	249.034097000277	1
864	1347379	251.276630729547	0.92857142857143
864	1347774	251.304264186759	1
864	1362862	253.796090288871	0.93333333333333
864	1363304	253.823723746083	1
864	1383374	257.193326386776	0.9375
864	1383656	257.215759843988	1
864	1394448	259.417849747876	0.94117647058824
864	1394999	259.446619205088	1
864	1395507	259.601649835463	0.94444444444444
864	1395705	259.623763292675	1
864	1403219	260.896018734745	0.94736842105263
864	1403610	260.918132191957	1
864	1421586	263.754359706333	0.95
864	1421983	263.776793163545	1
864	1431175	265.171340909747	0.95238095238095
864	1431421	265.193454366959	1
864	1444085	267.84939562318	0.95454545454545
864	1444282	267.871189080392	1
864	1452337	269.118669613051	0.95652173913043
864	1453035	269.157231737391	1
864	1480889	273.20319787508	0.95833333333333
864	1481087	273.225631332292	1
864	1491662	275.413535647811	0.96
864	1492035	275.444769105023	1
864	1497798	276.774218950002	0.96153846153846
864	1498227	276.801580407214	1
864	1502736	277.542481114676	0.96296296296296
864	1502936	277.563634571888	1
864	1529833	281.779772792883	0.96428571428571
864	1530086	281.801246250095	1
864	1561677	286.590600453589	0.96551724137931
864	1561926	286.610793910801	1
864	1562334	286.630132722545	0.96666666666667
864	1562949	286.657766179757	1
864	1587270	290.704098126824	0.96774193548387
864	1587468	290.725571584036	1
864	1595433	291.969574022789	0.96875
864	1595631	291.991367480001	1
864	1597121	292.223729765524	0.96969696969697
864	1597578	292.249491222736	1
864	1598625	292.450069734256	0.97058823529412
864	1598823	292.472823191468	1
864	1601996	292.874389039266	0.97142857142857
864	1602229	292.898742496478	1
864	1657496	303.4201178797	0.97222222222222
864	1657747	303.441271336912	1
864	1697575	310.131355283577	0.97297297297297
864	1697909	310.160908740789	1
864	1709503	312.302681215792	0.97368421052632
864	1709744	312.326714673004	1
864	1732460	315.514546989205	0.97435897435897
864	1732702	315.536660446417	1
864	1733661	315.711644154271	0.975
864	1733919	315.733117611483	1
864	1735954	316.247489985398	0.97560975609756
864	1736152	316.27024344261	1
864	1743518	317.806687613279	0.97619047619048
864	1744042	317.833361070491	1
864	1765311	321.393194149611	0.97674418604651
864	1765597	321.413067606823	1
864	1775658	323.459429165472	0.97727272727273
864	1776075	323.488022622684	1
864	1776160	323.511735016517	0.97777777777778
864	1776416	323.535448473729	1
864	1803423	328.189807968836	0.97826086956522
864	1803624	328.213201426048	1
864	1818052	331.191864341997	0.97872340425532
864	1818596	331.217497799209	1
864	1829498	332.576086674183	0.97916666666667
864	1829847	332.598520131395	1
864	1835591	333.633433602323	0.97959183673469
864	1835789	333.656507059535	1
864	1844304	334.895139836222	0.98
864	1844747	334.921493293434	1
864	1848575	335.620147567489	0.98039215686275
864	1848775	335.642581024701	1
864	1850138	335.991547823748	0.98076923076923
864	1850336	336.01430128096	1
864	1935233	350.342717435177	0.9811320754717
864	1935431	350.363870892389	1
864	1940736	351.223861219896	0.98148148148148
864	1941040	351.245654677108	1
864	1954835	353.252487288644	0.98181818181818
864	1955153	353.273640745856	1
864	1958879	354.00304743043	0.98214285714286
864	1959338	354.03258555477	1
864	1982978	358.045052933257	0.98245614035088
864	1983218	358.068446390469	1
864	2000732	361.184453881336	0.98275862068966
864	2001143	361.206567338548	1
864	2002624	361.391615181905	0.98305084745763
864	2002822	361.414688639117	1
864	2037502	367.447417087223	0.98333333333333
864	2046865	368.712531122015	0.9672131147541
864	2047377	368.742532579227	0.98360655737705
864	2058838	370.746158462354	0.96774193548387
864	2059165	370.771471919566	0.98387096774194
864	2064518	371.808485184365	0.96825396825397
864	2064720	371.830278641577	0.98412698412698
864	2068772	372.300024294183	0.96875
864	2069210	372.322457751395	0.984375
864	2075037	373.215817513391	0.96923076923077
864	2075661	373.243450970603	0.98461538461538
864	2086178	374.888084705874	0.96969696969697
864	2086402	374.910518163086	0.98484848484848
864	2087132	375.006580449865	0.97014925373134
864	2087478	375.034533907077	0.98507462686567
864	2097097	376.698222672719	0.97058823529412
864	2097325	376.720976129931	0.98529411764706
864	2108151	378.982704948424	0.97101449275362
864	2108479	379.002898405636	0.98550724637681
864	2147400	385.114457207056	0.97142857142857
864	2147598	385.136250664268	0.98571428571429
864	2148383	385.234473951032	0.97183098591549
864	2148762	385.264667408244	0.98591549295775
864	2161234	387.276307809292	0.97222222222222
864	2161463	387.296501266504	0.98611111111111
864	2166439	388.429075915005	0.97260273972603
864	2167208	388.463829372217	0.98630136986301
864	2187417	391.954060649815	0.97297297297297
864	2187968	391.986942107027	0.98648648648649
864	2205951	394.638816825288	0.97333333333333
864	2206149	394.6602902825	0.98666666666667
864	2223274	397.115696287936	0.97368421052632
864	2223995	397.147025745148	0.98684210526316
864	2247470	401.50417944186	0.97402597402597
864	2247788	401.524052899072	0.98701298701299
864	2247964	401.564224624914	0.97435897435897
864	2248163	401.584098082126	0.98717948717949
864	2248263	401.655931213688	0.9746835443038
864	2248507	401.6780446709	0.9873417721519
864	2251956	402.2901325142	0.975
864	2252579	402.334645971412	0.9875
864	2267635	405.088404307842	0.97530864197531
864	2267832	405.110197765054	0.98765432098765
864	2277778	407.000043857183	0.97560975609756
864	2277975	407.021837314395	0.98780487804878
864	2287920	408.465759077469	0.97590361445783
864	2288117	408.487232534681	0.98795180722892
864	2293211	409.875204545554	0.97619047619048
864	2293582	409.897638002766	0.98809523809524
864	2297728	410.607862317803	0.97647058823529
864	2298039	410.631255775015	0.98823529411765
864	2301615	411.470216684588	0.97674418604651
864	2301966	411.4936101418	0.98837209302326
864	2322713	414.551409008772	0.97701149425287
864	2323210	414.580450465984	0.98850574712644
864	2338343	417.228284172534	0.97727272727273
864	2338605	417.250717629746	0.98863636363636
864	2349319	419.890809405615	0.97752808988764
864	2349971	419.921002862827	0.98876404494382
864	2365646	422.301116386593	0.97777777777778
864	2365951	422.321309843805	0.98888888888889
864	2394390	426.929079770542	0.97802197802198
864	2394709	426.956761227754	0.98901098901099
864	2397001	427.337401215916	0.97826086956522
864	2397258	427.359514673128	0.98913043478261
864	2406489	428.90908682553	0.97849462365591
864	2407374	428.946064282742	0.98924731182796
864	2408344	428.999674577262	0.97872340425532
864	2408469	429.004907737908	0.96842105263158
864	2409260	429.052733862248	0.97894736842105
864	2409386	429.065534529376	0.98947368421053
864	2410647	429.408318925668	0.97916666666667
864	2411020	429.43923238288	0.98958333333333
864	2423870	431.301094233289	0.97938144329897
864	2424303	431.323527690501	0.98969072164948
864	2451616	435.78754151902	0.97959183673469
864	2451814	435.810294976232	0.98979591836735
864	2463830	437.821326113516	0.97979797979798
864	2464417	437.843759570728	0.98989898989899
864	2481069	440.698620693693	0.98
864	2481515	440.735518150905	0.99
