file 14124237 1480685063                                        
version 2
run DSME-0-20161202-13:20:21-17973
attr beaconInterval 10s
attr configname DSME
attr datetime 20161202-13:20:21
attr experiment DSME
attr inifile simulations/omnetpp.ini
attr iterationvars "$packetLength=76B, $sendInt=2, $beaconInterval=10s, $0=10s/2, $1=3 * 10s"
attr iterationvars2 "$packetLength=76B, $sendInt=2, $beaconInterval=10s, $0=10s/2, $1=3 * 10s, $repetition=0"
attr measurement "$packetLength=76B, $sendInt=2, $beaconInterval=10s, $0=10s/2, $1=3 * 10s"
attr network multi_gateway.Net802154MultiGateway
attr packetLength 76B
attr processid 17973
attr repetition 0
attr replication #0
attr resultdir ../results
attr runnumber 0
attr seedset 0
attr sendInt 2
param **.configurator.addStaticRoutes false
param **.dumpRoutes false
param **.dumpTopology false
param **.host[*].**.gpsr.beaconInterval "${beaconInterval = 10s}"
param **.host[*].**.gpsr.maxJitter ${$beaconInterval/2}
param **.host[*].**.gpsr.neighborValidityInterval "${3 * $beaconInterval}"
param **.host[*].**.gpsr.positionByteLength "2 B"
param **.host[*].**.gpsr.routingStrategy "\"StraightestPath\""
param **.host[*].**.trafficgen.continueSendingDummyPackets true
param **.host[*].**.trafficgen.coolDownDuration 15s
param **.host[*].**.trafficgen.destAddresses "\"host[0].wrappedHost(modulepath)\""
param **.host[*].**.trafficgen.packetLength "${packetLength = 76B}"
param **.host[*].**.trafficgen.sendInterval "exponential(${sendInt=1.0..2.5 step 0.25}s)"
param **.host[*].**.trafficgen.startTime 30s
param **.host[*].**.trafficgen.warmUpDuration 190s
param **.host[*].**.wlan[*].mac.macDSMEGTSExpirationTime 7
param **.host[*].**.wlan[*].macType "\"DSME\""
param **.host[*].**.wlan[*].radio.receiver.minInterferencePower "-100 dBm"
param **.host[*].hostType "\"SimpleHost\""
param **.host[*].mobilityType "\"StaticConcentricWrappingMobility\""
param **.host[0].**.trafficgen.numPackets 0
param **.host[0].**.wlan[*].mac.isPANCoordinator true
param **.host[1..].**.trafficgen.numPackets 100
param **.numHosts 62
param **.radioMedium.rangeFilter "\"interferenceRange\""
param **.routingTable.addressType "\"modulepath\""
param **.routingTableType "\"GenericRoutingTable\""

vector 17  Net802154MultiGateway.host[0].wrappedHost.wlan[0].mac  uncorruptedFrameReceived:vector(packetBytes)  ETV
attr interpolationmode  none
attr source  uncorruptedFrameReceived
attr title  "uncorrupted frame received, vector(packetBytes)"
vector 71  Net802154MultiGateway.host[3].wrappedHost.wlan[0].mac  uncorruptedFrameReceived:vector(packetBytes)  ETV
attr interpolationmode  none
attr source  uncorruptedFrameReceived
attr title  "uncorrupted frame received, vector(packetBytes)"
vector 107  Net802154MultiGateway.host[5].wrappedHost.wlan[0].mac  uncorruptedFrameReceived:vector(packetBytes)  ETV
attr interpolationmode  none
attr source  uncorruptedFrameReceived
attr title  "uncorrupted frame received, vector(packetBytes)"
vector 251  Net802154MultiGateway.host[13].wrappedHost.wlan[0].mac  uncorruptedFrameReceived:vector(packetBytes)  ETV
attr interpolationmode  none
attr source  uncorruptedFrameReceived
attr title  "uncorrupted frame received, vector(packetBytes)"
vector 233  Net802154MultiGateway.host[12].wrappedHost.wlan[0].mac  uncorruptedFrameReceived:vector(packetBytes)  ETV
attr interpolationmode  none
attr source  uncorruptedFrameReceived
attr title  "uncorrupted frame received, vector(packetBytes)"
vector 269  Net802154MultiGateway.host[14].wrappedHost.wlan[0].mac  uncorruptedFrameReceived:vector(packetBytes)  ETV
attr interpolationmode  none
attr source  uncorruptedFrameReceived
attr title  "uncorrupted frame received, vector(packetBytes)"
vector 52  Net802154MultiGateway.host[2].wrappedHost.wlan[0].mac  corruptedFrameReceived:vector(packetBytes)  ETV
attr interpolationmode  none
attr source  corruptedFrameReceived
attr title  "corrupted frame received, vector(packetBytes)"
vector 124  Net802154MultiGateway.host[6].wrappedHost.wlan[0].mac  corruptedFrameReceived:vector(packetBytes)  ETV
attr interpolationmode  none
attr source  corruptedFrameReceived
attr title  "corrupted frame received, vector(packetBytes)"
vector 214  Net802154MultiGateway.host[11].wrappedHost.wlan[0].mac  corruptedFrameReceived:vector(packetBytes)  ETV
attr interpolationmode  none
attr source  corruptedFrameReceived
attr title  "corrupted frame received, vector(packetBytes)"
vector 287  Net802154MultiGateway.host[15].wrappedHost.wlan[0].mac  uncorruptedFrameReceived:vector(packetBytes)  ETV
attr interpolationmode  none
attr source  uncorruptedFrameReceived
attr title  "uncorrupted frame received, vector(packetBytes)"
vector 35  Net802154MultiGateway.host[1].wrappedHost.wlan[0].mac  uncorruptedFrameReceived:vector(packetBytes)  ETV
attr interpolationmode  none
attr source  uncorruptedFrameReceived
attr title  "uncorrupted frame received, vector(packetBytes)"
vector 53  Net802154MultiGateway.host[2].wrappedHost.wlan[0].mac  uncorruptedFrameReceived:vector(packetBytes)  ETV
attr interpolationmode  none
attr source  uncorruptedFrameReceived
attr title  "uncorrupted frame received, vector(packetBytes)"
vector 89  Net802154MultiGateway.host[4].wrappedHost.wlan[0].mac  uncorruptedFrameReceived:vector(packetBytes)  ETV
attr interpolationmode  none
attr source  uncorruptedFrameReceived
attr title  "uncorrupted frame received, vector(packetBytes)"
vector 125  Net802154MultiGateway.host[6].wrappedHost.wlan[0].mac  uncorruptedFrameReceived:vector(packetBytes)  ETV
attr interpolationmode  none
attr source  uncorruptedFrameReceived
attr title  "uncorrupted frame received, vector(packetBytes)"
vector 323  Net802154MultiGateway.host[17].wrappedHost.wlan[0].mac  uncorruptedFrameReceived:vector(packetBytes)  ETV
attr interpolationmode  none
attr source  uncorruptedFrameReceived
attr title  "uncorrupted frame received, vector(packetBytes)"
vector 305  Net802154MultiGateway.host[16].wrappedHost.wlan[0].mac  uncorruptedFrameReceived:vector(packetBytes)  ETV
attr interpolationmode  none
attr source  uncorruptedFrameReceived
attr title  "uncorrupted frame received, vector(packetBytes)"
vector 341  Net802154MultiGateway.host[18].wrappedHost.wlan[0].mac  uncorruptedFrameReceived:vector(packetBytes)  ETV
attr interpolationmode  none
attr source  uncorruptedFrameReceived
attr title  "uncorrupted frame received, vector(packetBytes)"
vector 142  Net802154MultiGateway.host[7].wrappedHost.wlan[0].mac  corruptedFrameReceived:vector(packetBytes)  ETV
attr interpolationmode  none
attr source  corruptedFrameReceived
attr title  "corrupted frame received, vector(packetBytes)"
vector 215  Net802154MultiGateway.host[11].wrappedHost.wlan[0].mac  uncorruptedFrameReceived:vector(packetBytes)  ETV
attr interpolationmode  none
attr source  uncorruptedFrameReceived
attr title  "uncorrupted frame received, vector(packetBytes)"
vector 197  Net802154MultiGateway.host[10].wrappedHost.wlan[0].mac  uncorruptedFrameReceived:vector(packetBytes)  ETV
attr interpolationmode  none
attr source  uncorruptedFrameReceived
attr title  "uncorrupted frame received, vector(packetBytes)"
vector 34  Net802154MultiGateway.host[1].wrappedHost.wlan[0].mac  corruptedFrameReceived:vector(packetBytes)  ETV
attr interpolationmode  none
attr source  corruptedFrameReceived
attr title  "corrupted frame received, vector(packetBytes)"
vector 106  Net802154MultiGateway.host[5].wrappedHost.wlan[0].mac  corruptedFrameReceived:vector(packetBytes)  ETV
attr interpolationmode  none
attr source  corruptedFrameReceived
attr title  "corrupted frame received, vector(packetBytes)"
vector 178  Net802154MultiGateway.host[9].wrappedHost.wlan[0].mac  corruptedFrameReceived:vector(packetBytes)  ETV
attr interpolationmode  none
attr source  corruptedFrameReceived
attr title  "corrupted frame received, vector(packetBytes)"
vector 250  Net802154MultiGateway.host[13].wrappedHost.wlan[0].mac  corruptedFrameReceived:vector(packetBytes)  ETV
attr interpolationmode  none
attr source  corruptedFrameReceived
attr title  "corrupted frame received, vector(packetBytes)"
vector 143  Net802154MultiGateway.host[7].wrappedHost.wlan[0].mac  uncorruptedFrameReceived:vector(packetBytes)  ETV
attr interpolationmode  none
attr source  uncorruptedFrameReceived
attr title  "uncorrupted frame received, vector(packetBytes)"
vector 179  Net802154MultiGateway.host[9].wrappedHost.wlan[0].mac  uncorruptedFrameReceived:vector(packetBytes)  ETV
attr interpolationmode  none
attr source  uncorruptedFrameReceived
attr title  "uncorrupted frame received, vector(packetBytes)"
vector 161  Net802154MultiGateway.host[8].wrappedHost.wlan[0].mac  uncorruptedFrameReceived:vector(packetBytes)  ETV
attr interpolationmode  none
attr source  uncorruptedFrameReceived
attr title  "uncorrupted frame received, vector(packetBytes)"
vector 88  Net802154MultiGateway.host[4].wrappedHost.wlan[0].mac  corruptedFrameReceived:vector(packetBytes)  ETV
attr interpolationmode  none
attr source  corruptedFrameReceived
attr title  "corrupted frame received, vector(packetBytes)"
vector 286  Net802154MultiGateway.host[15].wrappedHost.wlan[0].mac  corruptedFrameReceived:vector(packetBytes)  ETV
attr interpolationmode  none
attr source  corruptedFrameReceived
attr title  "corrupted frame received, vector(packetBytes)"
vector 70  Net802154MultiGateway.host[3].wrappedHost.wlan[0].mac  corruptedFrameReceived:vector(packetBytes)  ETV
attr interpolationmode  none
attr source  corruptedFrameReceived
attr title  "corrupted frame received, vector(packetBytes)"
vector 322  Net802154MultiGateway.host[17].wrappedHost.wlan[0].mac  corruptedFrameReceived:vector(packetBytes)  ETV
attr interpolationmode  none
attr source  corruptedFrameReceived
attr title  "corrupted frame received, vector(packetBytes)"
vector 449  Net802154MultiGateway.host[24].wrappedHost.wlan[0].mac  uncorruptedFrameReceived:vector(packetBytes)  ETV
attr interpolationmode  none
attr source  uncorruptedFrameReceived
attr title  "uncorrupted frame received, vector(packetBytes)"
vector 791  Net802154MultiGateway.host[43].wrappedHost.wlan[0].mac  uncorruptedFrameReceived:vector(packetBytes)  ETV
attr interpolationmode  none
attr source  uncorruptedFrameReceived
attr title  "uncorrupted frame received, vector(packetBytes)"
vector 827  Net802154MultiGateway.host[45].wrappedHost.wlan[0].mac  uncorruptedFrameReceived:vector(packetBytes)  ETV
attr interpolationmode  none
attr source  uncorruptedFrameReceived
attr title  "uncorrupted frame received, vector(packetBytes)"
vector 467  Net802154MultiGateway.host[25].wrappedHost.wlan[0].mac  uncorruptedFrameReceived:vector(packetBytes)  ETV
attr interpolationmode  none
attr source  uncorruptedFrameReceived
attr title  "uncorrupted frame received, vector(packetBytes)"
vector 431  Net802154MultiGateway.host[23].wrappedHost.wlan[0].mac  uncorruptedFrameReceived:vector(packetBytes)  ETV
attr interpolationmode  none
attr source  uncorruptedFrameReceived
attr title  "uncorrupted frame received, vector(packetBytes)"
vector 809  Net802154MultiGateway.host[44].wrappedHost.wlan[0].mac  uncorruptedFrameReceived:vector(packetBytes)  ETV
attr interpolationmode  none
attr source  uncorruptedFrameReceived
attr title  "uncorrupted frame received, vector(packetBytes)"
vector 845  Net802154MultiGateway.host[46].wrappedHost.wlan[0].mac  uncorruptedFrameReceived:vector(packetBytes)  ETV
attr interpolationmode  none
attr source  uncorruptedFrameReceived
attr title  "uncorrupted frame received, vector(packetBytes)"
vector 484  Net802154MultiGateway.host[26].wrappedHost.wlan[0].mac  corruptedFrameReceived:vector(packetBytes)  ETV
attr interpolationmode  none
attr source  corruptedFrameReceived
attr title  "corrupted frame received, vector(packetBytes)"
vector 359  Net802154MultiGateway.host[19].wrappedHost.wlan[0].mac  uncorruptedFrameReceived:vector(packetBytes)  ETV
attr interpolationmode  none
attr source  uncorruptedFrameReceived
attr title  "uncorrupted frame received, vector(packetBytes)"
vector 701  Net802154MultiGateway.host[38].wrappedHost.wlan[0].mac  uncorruptedFrameReceived:vector(packetBytes)  ETV
attr interpolationmode  none
attr source  uncorruptedFrameReceived
attr title  "uncorrupted frame received, vector(packetBytes)"
vector 1115  Net802154MultiGateway.host[61].wrappedHost.wlan[0].mac  uncorruptedFrameReceived:vector(packetBytes)  ETV
attr interpolationmode  none
attr source  uncorruptedFrameReceived
attr title  "uncorrupted frame received, vector(packetBytes)"
vector 377  Net802154MultiGateway.host[20].wrappedHost.wlan[0].mac  uncorruptedFrameReceived:vector(packetBytes)  ETV
attr interpolationmode  none
attr source  uncorruptedFrameReceived
attr title  "uncorrupted frame received, vector(packetBytes)"
vector 665  Net802154MultiGateway.host[36].wrappedHost.wlan[0].mac  uncorruptedFrameReceived:vector(packetBytes)  ETV
attr interpolationmode  none
attr source  uncorruptedFrameReceived
attr title  "uncorrupted frame received, vector(packetBytes)"
vector 1043  Net802154MultiGateway.host[57].wrappedHost.wlan[0].mac  uncorruptedFrameReceived:vector(packetBytes)  ETV
attr interpolationmode  none
attr source  uncorruptedFrameReceived
attr title  "uncorrupted frame received, vector(packetBytes)"
vector 1079  Net802154MultiGateway.host[59].wrappedHost.wlan[0].mac  uncorruptedFrameReceived:vector(packetBytes)  ETV
attr interpolationmode  none
attr source  uncorruptedFrameReceived
attr title  "uncorrupted frame received, vector(packetBytes)"
vector 629  Net802154MultiGateway.host[34].wrappedHost.wlan[0].mac  uncorruptedFrameReceived:vector(packetBytes)  ETV
attr interpolationmode  none
attr source  uncorruptedFrameReceived
attr title  "uncorrupted frame received, vector(packetBytes)"
vector 647  Net802154MultiGateway.host[35].wrappedHost.wlan[0].mac  uncorruptedFrameReceived:vector(packetBytes)  ETV
attr interpolationmode  none
attr source  uncorruptedFrameReceived
attr title  "uncorrupted frame received, vector(packetBytes)"
vector 611  Net802154MultiGateway.host[33].wrappedHost.wlan[0].mac  uncorruptedFrameReceived:vector(packetBytes)  ETV
attr interpolationmode  none
attr source  uncorruptedFrameReceived
attr title  "uncorrupted frame received, vector(packetBytes)"
vector 989  Net802154MultiGateway.host[54].wrappedHost.wlan[0].mac  uncorruptedFrameReceived:vector(packetBytes)  ETV
attr interpolationmode  none
attr source  uncorruptedFrameReceived
attr title  "uncorrupted frame received, vector(packetBytes)"
vector 557  Net802154MultiGateway.host[30].wrappedHost.wlan[0].mac  uncorruptedFrameReceived:vector(packetBytes)  ETV
attr interpolationmode  none
attr source  uncorruptedFrameReceived
attr title  "uncorrupted frame received, vector(packetBytes)"
vector 593  Net802154MultiGateway.host[32].wrappedHost.wlan[0].mac  uncorruptedFrameReceived:vector(packetBytes)  ETV
attr interpolationmode  none
attr source  uncorruptedFrameReceived
attr title  "uncorrupted frame received, vector(packetBytes)"
vector 971  Net802154MultiGateway.host[53].wrappedHost.wlan[0].mac  uncorruptedFrameReceived:vector(packetBytes)  ETV
attr interpolationmode  none
attr source  uncorruptedFrameReceived
attr title  "uncorrupted frame received, vector(packetBytes)"
vector 1007  Net802154MultiGateway.host[55].wrappedHost.wlan[0].mac  uncorruptedFrameReceived:vector(packetBytes)  ETV
attr interpolationmode  none
attr source  uncorruptedFrameReceived
attr title  "uncorrupted frame received, vector(packetBytes)"
vector 304  Net802154MultiGateway.host[16].wrappedHost.wlan[0].mac  corruptedFrameReceived:vector(packetBytes)  ETV
attr interpolationmode  none
attr source  corruptedFrameReceived
attr title  "corrupted frame received, vector(packetBytes)"
vector 952  Net802154MultiGateway.host[52].wrappedHost.wlan[0].mac  corruptedFrameReceived:vector(packetBytes)  ETV
attr interpolationmode  none
attr source  corruptedFrameReceived
attr title  "corrupted frame received, vector(packetBytes)"
vector 485  Net802154MultiGateway.host[26].wrappedHost.wlan[0].mac  uncorruptedFrameReceived:vector(packetBytes)  ETV
attr interpolationmode  none
attr source  uncorruptedFrameReceived
attr title  "uncorrupted frame received, vector(packetBytes)"
vector 575  Net802154MultiGateway.host[31].wrappedHost.wlan[0].mac  uncorruptedFrameReceived:vector(packetBytes)  ETV
attr interpolationmode  none
attr source  uncorruptedFrameReceived
attr title  "uncorrupted frame received, vector(packetBytes)"
vector 395  Net802154MultiGateway.host[21].wrappedHost.wlan[0].mac  uncorruptedFrameReceived:vector(packetBytes)  ETV
attr interpolationmode  none
attr source  uncorruptedFrameReceived
attr title  "uncorrupted frame received, vector(packetBytes)"
vector 413  Net802154MultiGateway.host[22].wrappedHost.wlan[0].mac  uncorruptedFrameReceived:vector(packetBytes)  ETV
attr interpolationmode  none
attr source  uncorruptedFrameReceived
attr title  "uncorrupted frame received, vector(packetBytes)"
vector 503  Net802154MultiGateway.host[27].wrappedHost.wlan[0].mac  uncorruptedFrameReceived:vector(packetBytes)  ETV
attr interpolationmode  none
attr source  uncorruptedFrameReceived
attr title  "uncorrupted frame received, vector(packetBytes)"
vector 539  Net802154MultiGateway.host[29].wrappedHost.wlan[0].mac  uncorruptedFrameReceived:vector(packetBytes)  ETV
attr interpolationmode  none
attr source  uncorruptedFrameReceived
attr title  "uncorrupted frame received, vector(packetBytes)"
vector 899  Net802154MultiGateway.host[49].wrappedHost.wlan[0].mac  uncorruptedFrameReceived:vector(packetBytes)  ETV
attr interpolationmode  none
attr source  uncorruptedFrameReceived
attr title  "uncorrupted frame received, vector(packetBytes)"
vector 917  Net802154MultiGateway.host[50].wrappedHost.wlan[0].mac  uncorruptedFrameReceived:vector(packetBytes)  ETV
attr interpolationmode  none
attr source  uncorruptedFrameReceived
attr title  "uncorrupted frame received, vector(packetBytes)"
vector 880  Net802154MultiGateway.host[48].wrappedHost.wlan[0].mac  corruptedFrameReceived:vector(packetBytes)  ETV
attr interpolationmode  none
attr source  corruptedFrameReceived
attr title  "corrupted frame received, vector(packetBytes)"
vector 934  Net802154MultiGateway.host[51].wrappedHost.wlan[0].mac  corruptedFrameReceived:vector(packetBytes)  ETV
attr interpolationmode  none
attr source  corruptedFrameReceived
attr title  "corrupted frame received, vector(packetBytes)"
vector 610  Net802154MultiGateway.host[33].wrappedHost.wlan[0].mac  corruptedFrameReceived:vector(packetBytes)  ETV
attr interpolationmode  none
attr source  corruptedFrameReceived
attr title  "corrupted frame received, vector(packetBytes)"
vector 881  Net802154MultiGateway.host[48].wrappedHost.wlan[0].mac  uncorruptedFrameReceived:vector(packetBytes)  ETV
attr interpolationmode  none
attr source  uncorruptedFrameReceived
attr title  "uncorrupted frame received, vector(packetBytes)"
vector 521  Net802154MultiGateway.host[28].wrappedHost.wlan[0].mac  uncorruptedFrameReceived:vector(packetBytes)  ETV
attr interpolationmode  none
attr source  uncorruptedFrameReceived
attr title  "uncorrupted frame received, vector(packetBytes)"
vector 520  Net802154MultiGateway.host[28].wrappedHost.wlan[0].mac  corruptedFrameReceived:vector(packetBytes)  ETV
attr interpolationmode  none
attr source  corruptedFrameReceived
attr title  "corrupted frame received, vector(packetBytes)"
vector 935  Net802154MultiGateway.host[51].wrappedHost.wlan[0].mac  uncorruptedFrameReceived:vector(packetBytes)  ETV
attr interpolationmode  none
attr source  uncorruptedFrameReceived
attr title  "uncorrupted frame received, vector(packetBytes)"
vector 340  Net802154MultiGateway.host[18].wrappedHost.wlan[0].mac  corruptedFrameReceived:vector(packetBytes)  ETV
attr interpolationmode  none
attr source  corruptedFrameReceived
attr title  "corrupted frame received, vector(packetBytes)"
vector 376  Net802154MultiGateway.host[20].wrappedHost.wlan[0].mac  corruptedFrameReceived:vector(packetBytes)  ETV
attr interpolationmode  none
attr source  corruptedFrameReceived
attr title  "corrupted frame received, vector(packetBytes)"
vector 664  Net802154MultiGateway.host[36].wrappedHost.wlan[0].mac  corruptedFrameReceived:vector(packetBytes)  ETV
attr interpolationmode  none
attr source  corruptedFrameReceived
attr title  "corrupted frame received, vector(packetBytes)"
vector 737  Net802154MultiGateway.host[40].wrappedHost.wlan[0].mac  uncorruptedFrameReceived:vector(packetBytes)  ETV
attr interpolationmode  none
attr source  uncorruptedFrameReceived
attr title  "uncorrupted frame received, vector(packetBytes)"
vector 719  Net802154MultiGateway.host[39].wrappedHost.wlan[0].mac  uncorruptedFrameReceived:vector(packetBytes)  ETV
attr interpolationmode  none
attr source  uncorruptedFrameReceived
attr title  "uncorrupted frame received, vector(packetBytes)"
vector 755  Net802154MultiGateway.host[41].wrappedHost.wlan[0].mac  uncorruptedFrameReceived:vector(packetBytes)  ETV
attr interpolationmode  none
attr source  uncorruptedFrameReceived
attr title  "uncorrupted frame received, vector(packetBytes)"
vector 700  Net802154MultiGateway.host[38].wrappedHost.wlan[0].mac  corruptedFrameReceived:vector(packetBytes)  ETV
attr interpolationmode  none
attr source  corruptedFrameReceived
attr title  "corrupted frame received, vector(packetBytes)"
vector 1061  Net802154MultiGateway.host[58].wrappedHost.wlan[0].mac  uncorruptedFrameReceived:vector(packetBytes)  ETV
attr interpolationmode  none
attr source  uncorruptedFrameReceived
attr title  "uncorrupted frame received, vector(packetBytes)"
vector 1097  Net802154MultiGateway.host[60].wrappedHost.wlan[0].mac  uncorruptedFrameReceived:vector(packetBytes)  ETV
attr interpolationmode  none
attr source  uncorruptedFrameReceived
attr title  "uncorrupted frame received, vector(packetBytes)"
vector 1114  Net802154MultiGateway.host[61].wrappedHost.wlan[0].mac  corruptedFrameReceived:vector(packetBytes)  ETV
attr interpolationmode  none
attr source  corruptedFrameReceived
attr title  "corrupted frame received, vector(packetBytes)"
vector 683  Net802154MultiGateway.host[37].wrappedHost.wlan[0].mac  uncorruptedFrameReceived:vector(packetBytes)  ETV
attr interpolationmode  none
attr source  uncorruptedFrameReceived
attr title  "uncorrupted frame received, vector(packetBytes)"
vector 1078  Net802154MultiGateway.host[59].wrappedHost.wlan[0].mac  corruptedFrameReceived:vector(packetBytes)  ETV
attr interpolationmode  none
attr source  corruptedFrameReceived
attr title  "corrupted frame received, vector(packetBytes)"
vector 1025  Net802154MultiGateway.host[56].wrappedHost.wlan[0].mac  uncorruptedFrameReceived:vector(packetBytes)  ETV
attr interpolationmode  none
attr source  uncorruptedFrameReceived
attr title  "uncorrupted frame received, vector(packetBytes)"
vector 358  Net802154MultiGateway.host[19].wrappedHost.wlan[0].mac  corruptedFrameReceived:vector(packetBytes)  ETV
attr interpolationmode  none
attr source  corruptedFrameReceived
attr title  "corrupted frame received, vector(packetBytes)"
vector 628  Net802154MultiGateway.host[34].wrappedHost.wlan[0].mac  corruptedFrameReceived:vector(packetBytes)  ETV
attr interpolationmode  none
attr source  corruptedFrameReceived
attr title  "corrupted frame received, vector(packetBytes)"
vector 160  Net802154MultiGateway.host[8].wrappedHost.wlan[0].mac  corruptedFrameReceived:vector(packetBytes)  ETV
attr interpolationmode  none
attr source  corruptedFrameReceived
attr title  "corrupted frame received, vector(packetBytes)"
vector 448  Net802154MultiGateway.host[24].wrappedHost.wlan[0].mac  corruptedFrameReceived:vector(packetBytes)  ETV
attr interpolationmode  none
attr source  corruptedFrameReceived
attr title  "corrupted frame received, vector(packetBytes)"
vector 196  Net802154MultiGateway.host[10].wrappedHost.wlan[0].mac  corruptedFrameReceived:vector(packetBytes)  ETV
attr interpolationmode  none
attr source  corruptedFrameReceived
attr title  "corrupted frame received, vector(packetBytes)"
vector 394  Net802154MultiGateway.host[21].wrappedHost.wlan[0].mac  corruptedFrameReceived:vector(packetBytes)  ETV
attr interpolationmode  none
attr source  corruptedFrameReceived
attr title  "corrupted frame received, vector(packetBytes)"
vector 773  Net802154MultiGateway.host[42].wrappedHost.wlan[0].mac  uncorruptedFrameReceived:vector(packetBytes)  ETV
attr interpolationmode  none
attr source  uncorruptedFrameReceived
attr title  "uncorrupted frame received, vector(packetBytes)"
vector 736  Net802154MultiGateway.host[40].wrappedHost.wlan[0].mac  corruptedFrameReceived:vector(packetBytes)  ETV
attr interpolationmode  none
attr source  corruptedFrameReceived
attr title  "corrupted frame received, vector(packetBytes)"
vector 646  Net802154MultiGateway.host[35].wrappedHost.wlan[0].mac  corruptedFrameReceived:vector(packetBytes)  ETV
attr interpolationmode  none
attr source  corruptedFrameReceived
attr title  "corrupted frame received, vector(packetBytes)"
vector 862  Net802154MultiGateway.host[47].wrappedHost.wlan[0].mac  corruptedFrameReceived:vector(packetBytes)  ETV
attr interpolationmode  none
attr source  corruptedFrameReceived
attr title  "corrupted frame received, vector(packetBytes)"
vector 754  Net802154MultiGateway.host[41].wrappedHost.wlan[0].mac  corruptedFrameReceived:vector(packetBytes)  ETV
attr interpolationmode  none
attr source  corruptedFrameReceived
attr title  "corrupted frame received, vector(packetBytes)"
vector 412  Net802154MultiGateway.host[22].wrappedHost.wlan[0].mac  corruptedFrameReceived:vector(packetBytes)  ETV
attr interpolationmode  none
attr source  corruptedFrameReceived
attr title  "corrupted frame received, vector(packetBytes)"
vector 808  Net802154MultiGateway.host[44].wrappedHost.wlan[0].mac  corruptedFrameReceived:vector(packetBytes)  ETV
attr interpolationmode  none
attr source  corruptedFrameReceived
attr title  "corrupted frame received, vector(packetBytes)"
vector 682  Net802154MultiGateway.host[37].wrappedHost.wlan[0].mac  corruptedFrameReceived:vector(packetBytes)  ETV
attr interpolationmode  none
attr source  corruptedFrameReceived
attr title  "corrupted frame received, vector(packetBytes)"
vector 466  Net802154MultiGateway.host[25].wrappedHost.wlan[0].mac  corruptedFrameReceived:vector(packetBytes)  ETV
attr interpolationmode  none
attr source  corruptedFrameReceived
attr title  "corrupted frame received, vector(packetBytes)"
vector 232  Net802154MultiGateway.host[12].wrappedHost.wlan[0].mac  corruptedFrameReceived:vector(packetBytes)  ETV
attr interpolationmode  none
attr source  corruptedFrameReceived
attr title  "corrupted frame received, vector(packetBytes)"
vector 863  Net802154MultiGateway.host[47].wrappedHost.wlan[0].mac  uncorruptedFrameReceived:vector(packetBytes)  ETV
attr interpolationmode  none
attr source  uncorruptedFrameReceived
attr title  "uncorrupted frame received, vector(packetBytes)"
vector 826  Net802154MultiGateway.host[45].wrappedHost.wlan[0].mac  corruptedFrameReceived:vector(packetBytes)  ETV
attr interpolationmode  none
attr source  corruptedFrameReceived
attr title  "corrupted frame received, vector(packetBytes)"
vector 1060  Net802154MultiGateway.host[58].wrappedHost.wlan[0].mac  corruptedFrameReceived:vector(packetBytes)  ETV
attr interpolationmode  none
attr source  corruptedFrameReceived
attr title  "corrupted frame received, vector(packetBytes)"
vector 1006  Net802154MultiGateway.host[55].wrappedHost.wlan[0].mac  corruptedFrameReceived:vector(packetBytes)  ETV
attr interpolationmode  none
attr source  corruptedFrameReceived
attr title  "corrupted frame received, vector(packetBytes)"
vector 268  Net802154MultiGateway.host[14].wrappedHost.wlan[0].mac  corruptedFrameReceived:vector(packetBytes)  ETV
attr interpolationmode  none
attr source  corruptedFrameReceived
attr title  "corrupted frame received, vector(packetBytes)"
vector 123  Net802154MultiGateway.host[6].wrappedHost.wlan[0].mac  broadDataSentDown:vector(packetBytes)  ETV
attr interpolationmode  none
attr source  broadcastDataSentDown
attr title  "broadcast packet sent down of type DATA, vector(packetBytes)"
vector 699  Net802154MultiGateway.host[38].wrappedHost.wlan[0].mac  broadDataSentDown:vector(packetBytes)  ETV
attr interpolationmode  none
attr source  broadcastDataSentDown
attr title  "broadcast packet sent down of type DATA, vector(packetBytes)"
vector 429  Net802154MultiGateway.host[23].wrappedHost.wlan[0].mac  broadDataSentDown:vector(packetBytes)  ETV
attr interpolationmode  none
attr source  broadcastDataSentDown
attr title  "broadcast packet sent down of type DATA, vector(packetBytes)"
vector 573  Net802154MultiGateway.host[31].wrappedHost.wlan[0].mac  broadDataSentDown:vector(packetBytes)  ETV
attr interpolationmode  none
attr source  broadcastDataSentDown
attr title  "broadcast packet sent down of type DATA, vector(packetBytes)"
vector 1095  Net802154MultiGateway.host[60].wrappedHost.wlan[0].mac  broadDataSentDown:vector(packetBytes)  ETV
attr interpolationmode  none
attr source  broadcastDataSentDown
attr title  "broadcast packet sent down of type DATA, vector(packetBytes)"
vector 1077  Net802154MultiGateway.host[59].wrappedHost.wlan[0].mac  broadDataSentDown:vector(packetBytes)  ETV
attr interpolationmode  none
attr source  broadcastDataSentDown
attr title  "broadcast packet sent down of type DATA, vector(packetBytes)"
vector 321  Net802154MultiGateway.host[17].wrappedHost.wlan[0].mac  broadDataSentDown:vector(packetBytes)  ETV
attr interpolationmode  none
attr source  broadcastDataSentDown
attr title  "broadcast packet sent down of type DATA, vector(packetBytes)"
vector 681  Net802154MultiGateway.host[37].wrappedHost.wlan[0].mac  broadDataSentDown:vector(packetBytes)  ETV
attr interpolationmode  none
attr source  broadcastDataSentDown
attr title  "broadcast packet sent down of type DATA, vector(packetBytes)"
vector 627  Net802154MultiGateway.host[34].wrappedHost.wlan[0].mac  broadDataSentDown:vector(packetBytes)  ETV
attr interpolationmode  none
attr source  broadcastDataSentDown
attr title  "broadcast packet sent down of type DATA, vector(packetBytes)"
vector 33  Net802154MultiGateway.host[1].wrappedHost.wlan[0].mac  broadDataSentDown:vector(packetBytes)  ETV
attr interpolationmode  none
attr source  broadcastDataSentDown
attr title  "broadcast packet sent down of type DATA, vector(packetBytes)"
vector 663  Net802154MultiGateway.host[36].wrappedHost.wlan[0].mac  broadDataSentDown:vector(packetBytes)  ETV
attr interpolationmode  none
attr source  broadcastDataSentDown
attr title  "broadcast packet sent down of type DATA, vector(packetBytes)"
vector 1059  Net802154MultiGateway.host[58].wrappedHost.wlan[0].mac  broadDataSentDown:vector(packetBytes)  ETV
attr interpolationmode  none
attr source  broadcastDataSentDown
attr title  "broadcast packet sent down of type DATA, vector(packetBytes)"
vector 69  Net802154MultiGateway.host[3].wrappedHost.wlan[0].mac  broadDataSentDown:vector(packetBytes)  ETV
attr interpolationmode  none
attr source  broadcastDataSentDown
attr title  "broadcast packet sent down of type DATA, vector(packetBytes)"
vector 159  Net802154MultiGateway.host[8].wrappedHost.wlan[0].mac  broadDataSentDown:vector(packetBytes)  ETV
attr interpolationmode  none
attr source  broadcastDataSentDown
attr title  "broadcast packet sent down of type DATA, vector(packetBytes)"
vector 177  Net802154MultiGateway.host[9].wrappedHost.wlan[0].mac  broadDataSentDown:vector(packetBytes)  ETV
attr interpolationmode  none
attr source  broadcastDataSentDown
attr title  "broadcast packet sent down of type DATA, vector(packetBytes)"
vector 591  Net802154MultiGateway.host[32].wrappedHost.wlan[0].mac  broadDataSentDown:vector(packetBytes)  ETV
attr interpolationmode  none
attr source  broadcastDataSentDown
attr title  "broadcast packet sent down of type DATA, vector(packetBytes)"
vector 556  Net802154MultiGateway.host[30].wrappedHost.wlan[0].mac  corruptedFrameReceived:vector(packetBytes)  ETV
attr interpolationmode  none
attr source  corruptedFrameReceived
attr title  "corrupted frame received, vector(packetBytes)"
vector 15  Net802154MultiGateway.host[0].wrappedHost.wlan[0].mac  broadDataSentDown:vector(packetBytes)  ETV
attr interpolationmode  none
attr source  broadcastDataSentDown
attr title  "broadcast packet sent down of type DATA, vector(packetBytes)"
vector 953  Net802154MultiGateway.host[52].wrappedHost.wlan[0].mac  uncorruptedFrameReceived:vector(packetBytes)  ETV
attr interpolationmode  none
attr source  uncorruptedFrameReceived
attr title  "uncorrupted frame received, vector(packetBytes)"
vector 592  Net802154MultiGateway.host[32].wrappedHost.wlan[0].mac  corruptedFrameReceived:vector(packetBytes)  ETV
attr interpolationmode  none
attr source  corruptedFrameReceived
attr title  "corrupted frame received, vector(packetBytes)"
vector 988  Net802154MultiGateway.host[54].wrappedHost.wlan[0].mac  corruptedFrameReceived:vector(packetBytes)  ETV
attr interpolationmode  none
attr source  corruptedFrameReceived
attr title  "corrupted frame received, vector(packetBytes)"
vector 574  Net802154MultiGateway.host[31].wrappedHost.wlan[0].mac  corruptedFrameReceived:vector(packetBytes)  ETV
attr interpolationmode  none
attr source  corruptedFrameReceived
attr title  "corrupted frame received, vector(packetBytes)"
vector 609  Net802154MultiGateway.host[33].wrappedHost.wlan[0].mac  broadDataSentDown:vector(packetBytes)  ETV
attr interpolationmode  none
attr source  broadcastDataSentDown
attr title  "broadcast packet sent down of type DATA, vector(packetBytes)"
vector 555  Net802154MultiGateway.host[30].wrappedHost.wlan[0].mac  broadDataSentDown:vector(packetBytes)  ETV
attr interpolationmode  none
attr source  broadcastDataSentDown
attr title  "broadcast packet sent down of type DATA, vector(packetBytes)"
vector 393  Net802154MultiGateway.host[21].wrappedHost.wlan[0].mac  broadDataSentDown:vector(packetBytes)  ETV
attr interpolationmode  none
attr source  broadcastDataSentDown
attr title  "broadcast packet sent down of type DATA, vector(packetBytes)"
vector 447  Net802154MultiGateway.host[24].wrappedHost.wlan[0].mac  broadDataSentDown:vector(packetBytes)  ETV
attr interpolationmode  none
attr source  broadcastDataSentDown
attr title  "broadcast packet sent down of type DATA, vector(packetBytes)"
vector 339  Net802154MultiGateway.host[18].wrappedHost.wlan[0].mac  broadDataSentDown:vector(packetBytes)  ETV
attr interpolationmode  none
attr source  broadcastDataSentDown
attr title  "broadcast packet sent down of type DATA, vector(packetBytes)"
vector 267  Net802154MultiGateway.host[14].wrappedHost.wlan[0].mac  broadDataSentDown:vector(packetBytes)  ETV
attr interpolationmode  none
attr source  broadcastDataSentDown
attr title  "broadcast packet sent down of type DATA, vector(packetBytes)"
vector 411  Net802154MultiGateway.host[22].wrappedHost.wlan[0].mac  broadDataSentDown:vector(packetBytes)  ETV
attr interpolationmode  none
attr source  broadcastDataSentDown
attr title  "broadcast packet sent down of type DATA, vector(packetBytes)"
vector 375  Net802154MultiGateway.host[20].wrappedHost.wlan[0].mac  broadDataSentDown:vector(packetBytes)  ETV
attr interpolationmode  none
attr source  broadcastDataSentDown
attr title  "broadcast packet sent down of type DATA, vector(packetBytes)"
vector 430  Net802154MultiGateway.host[23].wrappedHost.wlan[0].mac  corruptedFrameReceived:vector(packetBytes)  ETV
attr interpolationmode  none
attr source  corruptedFrameReceived
attr title  "corrupted frame received, vector(packetBytes)"
vector 141  Net802154MultiGateway.host[7].wrappedHost.wlan[0].mac  broadDataSentDown:vector(packetBytes)  ETV
attr interpolationmode  none
attr source  broadcastDataSentDown
attr title  "broadcast packet sent down of type DATA, vector(packetBytes)"
vector 1005  Net802154MultiGateway.host[55].wrappedHost.wlan[0].mac  broadDataSentDown:vector(packetBytes)  ETV
attr interpolationmode  none
attr source  broadcastDataSentDown
attr title  "broadcast packet sent down of type DATA, vector(packetBytes)"
vector 303  Net802154MultiGateway.host[16].wrappedHost.wlan[0].mac  broadDataSentDown:vector(packetBytes)  ETV
attr interpolationmode  none
attr source  broadcastDataSentDown
attr title  "broadcast packet sent down of type DATA, vector(packetBytes)"
vector 231  Net802154MultiGateway.host[12].wrappedHost.wlan[0].mac  broadDataSentDown:vector(packetBytes)  ETV
attr interpolationmode  none
attr source  broadcastDataSentDown
attr title  "broadcast packet sent down of type DATA, vector(packetBytes)"
vector 1113  Net802154MultiGateway.host[61].wrappedHost.wlan[0].mac  broadDataSentDown:vector(packetBytes)  ETV
attr interpolationmode  none
attr source  broadcastDataSentDown
attr title  "broadcast packet sent down of type DATA, vector(packetBytes)"
vector 1023  Net802154MultiGateway.host[56].wrappedHost.wlan[0].mac  broadDataSentDown:vector(packetBytes)  ETV
attr interpolationmode  none
attr source  broadcastDataSentDown
attr title  "broadcast packet sent down of type DATA, vector(packetBytes)"
vector 717  Net802154MultiGateway.host[39].wrappedHost.wlan[0].mac  broadDataSentDown:vector(packetBytes)  ETV
attr interpolationmode  none
attr source  broadcastDataSentDown
attr title  "broadcast packet sent down of type DATA, vector(packetBytes)"
vector 483  Net802154MultiGateway.host[26].wrappedHost.wlan[0].mac  broadDataSentDown:vector(packetBytes)  ETV
attr interpolationmode  none
attr source  broadcastDataSentDown
attr title  "broadcast packet sent down of type DATA, vector(packetBytes)"
vector 249  Net802154MultiGateway.host[13].wrappedHost.wlan[0].mac  broadDataSentDown:vector(packetBytes)  ETV
attr interpolationmode  none
attr source  broadcastDataSentDown
attr title  "broadcast packet sent down of type DATA, vector(packetBytes)"
vector 51  Net802154MultiGateway.host[2].wrappedHost.wlan[0].mac  broadDataSentDown:vector(packetBytes)  ETV
attr interpolationmode  none
attr source  broadcastDataSentDown
attr title  "broadcast packet sent down of type DATA, vector(packetBytes)"
vector 645  Net802154MultiGateway.host[35].wrappedHost.wlan[0].mac  broadDataSentDown:vector(packetBytes)  ETV
attr interpolationmode  none
attr source  broadcastDataSentDown
attr title  "broadcast packet sent down of type DATA, vector(packetBytes)"
vector 195  Net802154MultiGateway.host[10].wrappedHost.wlan[0].mac  broadDataSentDown:vector(packetBytes)  ETV
attr interpolationmode  none
attr source  broadcastDataSentDown
attr title  "broadcast packet sent down of type DATA, vector(packetBytes)"
vector 357  Net802154MultiGateway.host[19].wrappedHost.wlan[0].mac  broadDataSentDown:vector(packetBytes)  ETV
attr interpolationmode  none
attr source  broadcastDataSentDown
attr title  "broadcast packet sent down of type DATA, vector(packetBytes)"
vector 285  Net802154MultiGateway.host[15].wrappedHost.wlan[0].mac  broadDataSentDown:vector(packetBytes)  ETV
attr interpolationmode  none
attr source  broadcastDataSentDown
attr title  "broadcast packet sent down of type DATA, vector(packetBytes)"
vector 213  Net802154MultiGateway.host[11].wrappedHost.wlan[0].mac  broadDataSentDown:vector(packetBytes)  ETV
attr interpolationmode  none
attr source  broadcastDataSentDown
attr title  "broadcast packet sent down of type DATA, vector(packetBytes)"
vector 105  Net802154MultiGateway.host[5].wrappedHost.wlan[0].mac  broadDataSentDown:vector(packetBytes)  ETV
attr interpolationmode  none
attr source  broadcastDataSentDown
attr title  "broadcast packet sent down of type DATA, vector(packetBytes)"
vector 502  Net802154MultiGateway.host[27].wrappedHost.wlan[0].mac  corruptedFrameReceived:vector(packetBytes)  ETV
attr interpolationmode  none
attr source  corruptedFrameReceived
attr title  "corrupted frame received, vector(packetBytes)"
vector 861  Net802154MultiGateway.host[47].wrappedHost.wlan[0].mac  broadDataSentDown:vector(packetBytes)  ETV
attr interpolationmode  none
attr source  broadcastDataSentDown
attr title  "broadcast packet sent down of type DATA, vector(packetBytes)"
vector 807  Net802154MultiGateway.host[44].wrappedHost.wlan[0].mac  broadDataSentDown:vector(packetBytes)  ETV
attr interpolationmode  none
attr source  broadcastDataSentDown
attr title  "broadcast packet sent down of type DATA, vector(packetBytes)"
vector 933  Net802154MultiGateway.host[51].wrappedHost.wlan[0].mac  broadDataSentDown:vector(packetBytes)  ETV
attr interpolationmode  none
attr source  broadcastDataSentDown
attr title  "broadcast packet sent down of type DATA, vector(packetBytes)"
vector 915  Net802154MultiGateway.host[50].wrappedHost.wlan[0].mac  broadDataSentDown:vector(packetBytes)  ETV
attr interpolationmode  none
attr source  broadcastDataSentDown
attr title  "broadcast packet sent down of type DATA, vector(packetBytes)"
vector 753  Net802154MultiGateway.host[41].wrappedHost.wlan[0].mac  broadDataSentDown:vector(packetBytes)  ETV
attr interpolationmode  none
attr source  broadcastDataSentDown
attr title  "broadcast packet sent down of type DATA, vector(packetBytes)"
vector 87  Net802154MultiGateway.host[4].wrappedHost.wlan[0].mac  broadDataSentDown:vector(packetBytes)  ETV
attr interpolationmode  none
attr source  broadcastDataSentDown
attr title  "broadcast packet sent down of type DATA, vector(packetBytes)"
vector 519  Net802154MultiGateway.host[28].wrappedHost.wlan[0].mac  broadDataSentDown:vector(packetBytes)  ETV
attr interpolationmode  none
attr source  broadcastDataSentDown
attr title  "broadcast packet sent down of type DATA, vector(packetBytes)"
vector 897  Net802154MultiGateway.host[49].wrappedHost.wlan[0].mac  broadDataSentDown:vector(packetBytes)  ETV
attr interpolationmode  none
attr source  broadcastDataSentDown
attr title  "broadcast packet sent down of type DATA, vector(packetBytes)"
vector 987  Net802154MultiGateway.host[54].wrappedHost.wlan[0].mac  broadDataSentDown:vector(packetBytes)  ETV
attr interpolationmode  none
attr source  broadcastDataSentDown
attr title  "broadcast packet sent down of type DATA, vector(packetBytes)"
vector 537  Net802154MultiGateway.host[29].wrappedHost.wlan[0].mac  broadDataSentDown:vector(packetBytes)  ETV
attr interpolationmode  none
attr source  broadcastDataSentDown
attr title  "broadcast packet sent down of type DATA, vector(packetBytes)"
vector 969  Net802154MultiGateway.host[53].wrappedHost.wlan[0].mac  broadDataSentDown:vector(packetBytes)  ETV
attr interpolationmode  none
attr source  broadcastDataSentDown
attr title  "broadcast packet sent down of type DATA, vector(packetBytes)"
vector 843  Net802154MultiGateway.host[46].wrappedHost.wlan[0].mac  broadDataSentDown:vector(packetBytes)  ETV
attr interpolationmode  none
attr source  broadcastDataSentDown
attr title  "broadcast packet sent down of type DATA, vector(packetBytes)"
vector 501  Net802154MultiGateway.host[27].wrappedHost.wlan[0].mac  broadDataSentDown:vector(packetBytes)  ETV
attr interpolationmode  none
attr source  broadcastDataSentDown
attr title  "broadcast packet sent down of type DATA, vector(packetBytes)"
vector 771  Net802154MultiGateway.host[42].wrappedHost.wlan[0].mac  broadDataSentDown:vector(packetBytes)  ETV
attr interpolationmode  none
attr source  broadcastDataSentDown
attr title  "broadcast packet sent down of type DATA, vector(packetBytes)"
vector 951  Net802154MultiGateway.host[52].wrappedHost.wlan[0].mac  broadDataSentDown:vector(packetBytes)  ETV
attr interpolationmode  none
attr source  broadcastDataSentDown
attr title  "broadcast packet sent down of type DATA, vector(packetBytes)"
vector 879  Net802154MultiGateway.host[48].wrappedHost.wlan[0].mac  broadDataSentDown:vector(packetBytes)  ETV
attr interpolationmode  none
attr source  broadcastDataSentDown
attr title  "broadcast packet sent down of type DATA, vector(packetBytes)"
vector 735  Net802154MultiGateway.host[40].wrappedHost.wlan[0].mac  broadDataSentDown:vector(packetBytes)  ETV
attr interpolationmode  none
attr source  broadcastDataSentDown
attr title  "broadcast packet sent down of type DATA, vector(packetBytes)"
vector 825  Net802154MultiGateway.host[45].wrappedHost.wlan[0].mac  broadDataSentDown:vector(packetBytes)  ETV
attr interpolationmode  none
attr source  broadcastDataSentDown
attr title  "broadcast packet sent down of type DATA, vector(packetBytes)"
vector 465  Net802154MultiGateway.host[25].wrappedHost.wlan[0].mac  broadDataSentDown:vector(packetBytes)  ETV
attr interpolationmode  none
attr source  broadcastDataSentDown
attr title  "broadcast packet sent down of type DATA, vector(packetBytes)"
vector 789  Net802154MultiGateway.host[43].wrappedHost.wlan[0].mac  broadDataSentDown:vector(packetBytes)  ETV
attr interpolationmode  none
attr source  broadcastDataSentDown
attr title  "broadcast packet sent down of type DATA, vector(packetBytes)"
vector 9  Net802154MultiGateway.host[0].wrappedHost.trafficgen  sentDummyPk:vector(packetBytes)  ETV
attr interpolationmode  none
attr source  sentDummyPk
attr title  "dummy packets sent, vector(packetBytes)"
vector 27  Net802154MultiGateway.host[1].wrappedHost.trafficgen  sentDummyPk:vector(packetBytes)  ETV
attr interpolationmode  none
attr source  sentDummyPk
attr title  "dummy packets sent, vector(packetBytes)"
vector 45  Net802154MultiGateway.host[2].wrappedHost.trafficgen  sentDummyPk:vector(packetBytes)  ETV
attr interpolationmode  none
attr source  sentDummyPk
attr title  "dummy packets sent, vector(packetBytes)"
vector 63  Net802154MultiGateway.host[3].wrappedHost.trafficgen  sentDummyPk:vector(packetBytes)  ETV
attr interpolationmode  none
attr source  sentDummyPk
attr title  "dummy packets sent, vector(packetBytes)"
vector 81  Net802154MultiGateway.host[4].wrappedHost.trafficgen  sentDummyPk:vector(packetBytes)  ETV
attr interpolationmode  none
attr source  sentDummyPk
attr title  "dummy packets sent, vector(packetBytes)"
vector 99  Net802154MultiGateway.host[5].wrappedHost.trafficgen  sentDummyPk:vector(packetBytes)  ETV
attr interpolationmode  none
attr source  sentDummyPk
attr title  "dummy packets sent, vector(packetBytes)"
vector 117  Net802154MultiGateway.host[6].wrappedHost.trafficgen  sentDummyPk:vector(packetBytes)  ETV
attr interpolationmode  none
attr source  sentDummyPk
attr title  "dummy packets sent, vector(packetBytes)"
vector 135  Net802154MultiGateway.host[7].wrappedHost.trafficgen  sentDummyPk:vector(packetBytes)  ETV
attr interpolationmode  none
attr source  sentDummyPk
attr title  "dummy packets sent, vector(packetBytes)"
vector 153  Net802154MultiGateway.host[8].wrappedHost.trafficgen  sentDummyPk:vector(packetBytes)  ETV
attr interpolationmode  none
attr source  sentDummyPk
attr title  "dummy packets sent, vector(packetBytes)"
vector 171  Net802154MultiGateway.host[9].wrappedHost.trafficgen  sentDummyPk:vector(packetBytes)  ETV
attr interpolationmode  none
attr source  sentDummyPk
attr title  "dummy packets sent, vector(packetBytes)"
vector 189  Net802154MultiGateway.host[10].wrappedHost.trafficgen  sentDummyPk:vector(packetBytes)  ETV
attr interpolationmode  none
attr source  sentDummyPk
attr title  "dummy packets sent, vector(packetBytes)"
vector 207  Net802154MultiGateway.host[11].wrappedHost.trafficgen  sentDummyPk:vector(packetBytes)  ETV
attr interpolationmode  none
attr source  sentDummyPk
attr title  "dummy packets sent, vector(packetBytes)"
vector 225  Net802154MultiGateway.host[12].wrappedHost.trafficgen  sentDummyPk:vector(packetBytes)  ETV
attr interpolationmode  none
attr source  sentDummyPk
attr title  "dummy packets sent, vector(packetBytes)"
vector 243  Net802154MultiGateway.host[13].wrappedHost.trafficgen  sentDummyPk:vector(packetBytes)  ETV
attr interpolationmode  none
attr source  sentDummyPk
attr title  "dummy packets sent, vector(packetBytes)"
vector 261  Net802154MultiGateway.host[14].wrappedHost.trafficgen  sentDummyPk:vector(packetBytes)  ETV
attr interpolationmode  none
attr source  sentDummyPk
attr title  "dummy packets sent, vector(packetBytes)"
vector 279  Net802154MultiGateway.host[15].wrappedHost.trafficgen  sentDummyPk:vector(packetBytes)  ETV
attr interpolationmode  none
attr source  sentDummyPk
attr title  "dummy packets sent, vector(packetBytes)"
vector 297  Net802154MultiGateway.host[16].wrappedHost.trafficgen  sentDummyPk:vector(packetBytes)  ETV
attr interpolationmode  none
attr source  sentDummyPk
attr title  "dummy packets sent, vector(packetBytes)"
vector 315  Net802154MultiGateway.host[17].wrappedHost.trafficgen  sentDummyPk:vector(packetBytes)  ETV
attr interpolationmode  none
attr source  sentDummyPk
attr title  "dummy packets sent, vector(packetBytes)"
vector 333  Net802154MultiGateway.host[18].wrappedHost.trafficgen  sentDummyPk:vector(packetBytes)  ETV
attr interpolationmode  none
attr source  sentDummyPk
attr title  "dummy packets sent, vector(packetBytes)"
vector 351  Net802154MultiGateway.host[19].wrappedHost.trafficgen  sentDummyPk:vector(packetBytes)  ETV
attr interpolationmode  none
attr source  sentDummyPk
attr title  "dummy packets sent, vector(packetBytes)"
vector 369  Net802154MultiGateway.host[20].wrappedHost.trafficgen  sentDummyPk:vector(packetBytes)  ETV
attr interpolationmode  none
attr source  sentDummyPk
attr title  "dummy packets sent, vector(packetBytes)"
vector 387  Net802154MultiGateway.host[21].wrappedHost.trafficgen  sentDummyPk:vector(packetBytes)  ETV
attr interpolationmode  none
attr source  sentDummyPk
attr title  "dummy packets sent, vector(packetBytes)"
vector 405  Net802154MultiGateway.host[22].wrappedHost.trafficgen  sentDummyPk:vector(packetBytes)  ETV
attr interpolationmode  none
attr source  sentDummyPk
attr title  "dummy packets sent, vector(packetBytes)"
vector 423  Net802154MultiGateway.host[23].wrappedHost.trafficgen  sentDummyPk:vector(packetBytes)  ETV
attr interpolationmode  none
attr source  sentDummyPk
attr title  "dummy packets sent, vector(packetBytes)"
vector 441  Net802154MultiGateway.host[24].wrappedHost.trafficgen  sentDummyPk:vector(packetBytes)  ETV
attr interpolationmode  none
attr source  sentDummyPk
attr title  "dummy packets sent, vector(packetBytes)"
vector 459  Net802154MultiGateway.host[25].wrappedHost.trafficgen  sentDummyPk:vector(packetBytes)  ETV
attr interpolationmode  none
attr source  sentDummyPk
attr title  "dummy packets sent, vector(packetBytes)"
vector 477  Net802154MultiGateway.host[26].wrappedHost.trafficgen  sentDummyPk:vector(packetBytes)  ETV
attr interpolationmode  none
attr source  sentDummyPk
attr title  "dummy packets sent, vector(packetBytes)"
vector 495  Net802154MultiGateway.host[27].wrappedHost.trafficgen  sentDummyPk:vector(packetBytes)  ETV
attr interpolationmode  none
attr source  sentDummyPk
attr title  "dummy packets sent, vector(packetBytes)"
vector 513  Net802154MultiGateway.host[28].wrappedHost.trafficgen  sentDummyPk:vector(packetBytes)  ETV
attr interpolationmode  none
attr source  sentDummyPk
attr title  "dummy packets sent, vector(packetBytes)"
vector 531  Net802154MultiGateway.host[29].wrappedHost.trafficgen  sentDummyPk:vector(packetBytes)  ETV
attr interpolationmode  none
attr source  sentDummyPk
attr title  "dummy packets sent, vector(packetBytes)"
vector 549  Net802154MultiGateway.host[30].wrappedHost.trafficgen  sentDummyPk:vector(packetBytes)  ETV
attr interpolationmode  none
attr source  sentDummyPk
attr title  "dummy packets sent, vector(packetBytes)"
vector 567  Net802154MultiGateway.host[31].wrappedHost.trafficgen  sentDummyPk:vector(packetBytes)  ETV
attr interpolationmode  none
attr source  sentDummyPk
attr title  "dummy packets sent, vector(packetBytes)"
vector 585  Net802154MultiGateway.host[32].wrappedHost.trafficgen  sentDummyPk:vector(packetBytes)  ETV
attr interpolationmode  none
attr source  sentDummyPk
attr title  "dummy packets sent, vector(packetBytes)"
vector 603  Net802154MultiGateway.host[33].wrappedHost.trafficgen  sentDummyPk:vector(packetBytes)  ETV
attr interpolationmode  none
attr source  sentDummyPk
attr title  "dummy packets sent, vector(packetBytes)"
vector 621  Net802154MultiGateway.host[34].wrappedHost.trafficgen  sentDummyPk:vector(packetBytes)  ETV
attr interpolationmode  none
attr source  sentDummyPk
attr title  "dummy packets sent, vector(packetBytes)"
vector 639  Net802154MultiGateway.host[35].wrappedHost.trafficgen  sentDummyPk:vector(packetBytes)  ETV
attr interpolationmode  none
attr source  sentDummyPk
attr title  "dummy packets sent, vector(packetBytes)"
vector 657  Net802154MultiGateway.host[36].wrappedHost.trafficgen  sentDummyPk:vector(packetBytes)  ETV
attr interpolationmode  none
attr source  sentDummyPk
attr title  "dummy packets sent, vector(packetBytes)"
vector 675  Net802154MultiGateway.host[37].wrappedHost.trafficgen  sentDummyPk:vector(packetBytes)  ETV
attr interpolationmode  none
attr source  sentDummyPk
attr title  "dummy packets sent, vector(packetBytes)"
vector 693  Net802154MultiGateway.host[38].wrappedHost.trafficgen  sentDummyPk:vector(packetBytes)  ETV
attr interpolationmode  none
attr source  sentDummyPk
attr title  "dummy packets sent, vector(packetBytes)"
vector 711  Net802154MultiGateway.host[39].wrappedHost.trafficgen  sentDummyPk:vector(packetBytes)  ETV
attr interpolationmode  none
attr source  sentDummyPk
attr title  "dummy packets sent, vector(packetBytes)"
vector 729  Net802154MultiGateway.host[40].wrappedHost.trafficgen  sentDummyPk:vector(packetBytes)  ETV
attr interpolationmode  none
attr source  sentDummyPk
attr title  "dummy packets sent, vector(packetBytes)"
vector 747  Net802154MultiGateway.host[41].wrappedHost.trafficgen  sentDummyPk:vector(packetBytes)  ETV
attr interpolationmode  none
attr source  sentDummyPk
attr title  "dummy packets sent, vector(packetBytes)"
vector 765  Net802154MultiGateway.host[42].wrappedHost.trafficgen  sentDummyPk:vector(packetBytes)  ETV
attr interpolationmode  none
attr source  sentDummyPk
attr title  "dummy packets sent, vector(packetBytes)"
vector 783  Net802154MultiGateway.host[43].wrappedHost.trafficgen  sentDummyPk:vector(packetBytes)  ETV
attr interpolationmode  none
attr source  sentDummyPk
attr title  "dummy packets sent, vector(packetBytes)"
vector 801  Net802154MultiGateway.host[44].wrappedHost.trafficgen  sentDummyPk:vector(packetBytes)  ETV
attr interpolationmode  none
attr source  sentDummyPk
attr title  "dummy packets sent, vector(packetBytes)"
vector 819  Net802154MultiGateway.host[45].wrappedHost.trafficgen  sentDummyPk:vector(packetBytes)  ETV
attr interpolationmode  none
attr source  sentDummyPk
attr title  "dummy packets sent, vector(packetBytes)"
vector 837  Net802154MultiGateway.host[46].wrappedHost.trafficgen  sentDummyPk:vector(packetBytes)  ETV
attr interpolationmode  none
attr source  sentDummyPk
attr title  "dummy packets sent, vector(packetBytes)"
vector 855  Net802154MultiGateway.host[47].wrappedHost.trafficgen  sentDummyPk:vector(packetBytes)  ETV
attr interpolationmode  none
attr source  sentDummyPk
attr title  "dummy packets sent, vector(packetBytes)"
vector 873  Net802154MultiGateway.host[48].wrappedHost.trafficgen  sentDummyPk:vector(packetBytes)  ETV
attr interpolationmode  none
attr source  sentDummyPk
attr title  "dummy packets sent, vector(packetBytes)"
vector 891  Net802154MultiGateway.host[49].wrappedHost.trafficgen  sentDummyPk:vector(packetBytes)  ETV
attr interpolationmode  none
attr source  sentDummyPk
attr title  "dummy packets sent, vector(packetBytes)"
vector 909  Net802154MultiGateway.host[50].wrappedHost.trafficgen  sentDummyPk:vector(packetBytes)  ETV
attr interpolationmode  none
attr source  sentDummyPk
attr title  "dummy packets sent, vector(packetBytes)"
vector 927  Net802154MultiGateway.host[51].wrappedHost.trafficgen  sentDummyPk:vector(packetBytes)  ETV
attr interpolationmode  none
attr source  sentDummyPk
attr title  "dummy packets sent, vector(packetBytes)"
vector 945  Net802154MultiGateway.host[52].wrappedHost.trafficgen  sentDummyPk:vector(packetBytes)  ETV
attr interpolationmode  none
attr source  sentDummyPk
attr title  "dummy packets sent, vector(packetBytes)"
vector 963  Net802154MultiGateway.host[53].wrappedHost.trafficgen  sentDummyPk:vector(packetBytes)  ETV
attr interpolationmode  none
attr source  sentDummyPk
attr title  "dummy packets sent, vector(packetBytes)"
vector 981  Net802154MultiGateway.host[54].wrappedHost.trafficgen  sentDummyPk:vector(packetBytes)  ETV
attr interpolationmode  none
attr source  sentDummyPk
attr title  "dummy packets sent, vector(packetBytes)"
vector 999  Net802154MultiGateway.host[55].wrappedHost.trafficgen  sentDummyPk:vector(packetBytes)  ETV
attr interpolationmode  none
attr source  sentDummyPk
attr title  "dummy packets sent, vector(packetBytes)"
vector 1017  Net802154MultiGateway.host[56].wrappedHost.trafficgen  sentDummyPk:vector(packetBytes)  ETV
attr interpolationmode  none
attr source  sentDummyPk
attr title  "dummy packets sent, vector(packetBytes)"
vector 1035  Net802154MultiGateway.host[57].wrappedHost.trafficgen  sentDummyPk:vector(packetBytes)  ETV
attr interpolationmode  none
attr source  sentDummyPk
attr title  "dummy packets sent, vector(packetBytes)"
vector 1053  Net802154MultiGateway.host[58].wrappedHost.trafficgen  sentDummyPk:vector(packetBytes)  ETV
attr interpolationmode  none
attr source  sentDummyPk
attr title  "dummy packets sent, vector(packetBytes)"
vector 1071  Net802154MultiGateway.host[59].wrappedHost.trafficgen  sentDummyPk:vector(packetBytes)  ETV
attr interpolationmode  none
attr source  sentDummyPk
attr title  "dummy packets sent, vector(packetBytes)"
vector 1089  Net802154MultiGateway.host[60].wrappedHost.trafficgen  sentDummyPk:vector(packetBytes)  ETV
attr interpolationmode  none
attr source  sentDummyPk
attr title  "dummy packets sent, vector(packetBytes)"
vector 1107  Net802154MultiGateway.host[61].wrappedHost.trafficgen  sentDummyPk:vector(packetBytes)  ETV
attr interpolationmode  none
attr source  sentDummyPk
attr title  "dummy packets sent, vector(packetBytes)"
vector 538  Net802154MultiGateway.host[29].wrappedHost.wlan[0].mac  corruptedFrameReceived:vector(packetBytes)  ETV
attr interpolationmode  none
attr source  corruptedFrameReceived
attr title  "corrupted frame received, vector(packetBytes)"
vector 916  Net802154MultiGateway.host[50].wrappedHost.wlan[0].mac  corruptedFrameReceived:vector(packetBytes)  ETV
attr interpolationmode  none
attr source  corruptedFrameReceived
attr title  "corrupted frame received, vector(packetBytes)"
vector 16  Net802154MultiGateway.host[0].wrappedHost.wlan[0].mac  corruptedFrameReceived:vector(packetBytes)  ETV
attr interpolationmode  none
attr source  corruptedFrameReceived
attr title  "corrupted frame received, vector(packetBytes)"
vector 716  Net802154MultiGateway.host[39].wrappedHost.wlan[0].mac  unicastDataSentDown:vector(packetBytes)  ETV
attr interpolationmode  none
attr source  unicastDataSentDown
attr title  "unicast packet sent down of type DATA, vector(packetBytes)"
vector 968  Net802154MultiGateway.host[53].wrappedHost.wlan[0].mac  unicastDataSentDown:vector(packetBytes)  ETV
attr interpolationmode  none
attr source  unicastDataSentDown
attr title  "unicast packet sent down of type DATA, vector(packetBytes)"
vector 1112  Net802154MultiGateway.host[61].wrappedHost.wlan[0].mac  unicastDataSentDown:vector(packetBytes)  ETV
attr interpolationmode  none
attr source  unicastDataSentDown
attr title  "unicast packet sent down of type DATA, vector(packetBytes)"
vector 878  Net802154MultiGateway.host[48].wrappedHost.wlan[0].mac  unicastDataSentDown:vector(packetBytes)  ETV
attr interpolationmode  none
attr source  unicastDataSentDown
attr title  "unicast packet sent down of type DATA, vector(packetBytes)"
vector 1058  Net802154MultiGateway.host[58].wrappedHost.wlan[0].mac  unicastDataSentDown:vector(packetBytes)  ETV
attr interpolationmode  none
attr source  unicastDataSentDown
attr title  "unicast packet sent down of type DATA, vector(packetBytes)"
vector 896  Net802154MultiGateway.host[49].wrappedHost.wlan[0].mac  unicastDataSentDown:vector(packetBytes)  ETV
attr interpolationmode  none
attr source  unicastDataSentDown
attr title  "unicast packet sent down of type DATA, vector(packetBytes)"
vector 752  Net802154MultiGateway.host[41].wrappedHost.wlan[0].mac  unicastDataSentDown:vector(packetBytes)  ETV
attr interpolationmode  none
attr source  unicastDataSentDown
attr title  "unicast packet sent down of type DATA, vector(packetBytes)"
vector 932  Net802154MultiGateway.host[51].wrappedHost.wlan[0].mac  unicastDataSentDown:vector(packetBytes)  ETV
attr interpolationmode  none
attr source  unicastDataSentDown
attr title  "unicast packet sent down of type DATA, vector(packetBytes)"
vector 824  Net802154MultiGateway.host[45].wrappedHost.wlan[0].mac  unicastDataSentDown:vector(packetBytes)  ETV
attr interpolationmode  none
attr source  unicastDataSentDown
attr title  "unicast packet sent down of type DATA, vector(packetBytes)"
vector 860  Net802154MultiGateway.host[47].wrappedHost.wlan[0].mac  unicastDataSentDown:vector(packetBytes)  ETV
attr interpolationmode  none
attr source  unicastDataSentDown
attr title  "unicast packet sent down of type DATA, vector(packetBytes)"
vector 680  Net802154MultiGateway.host[37].wrappedHost.wlan[0].mac  unicastDataSentDown:vector(packetBytes)  ETV
attr interpolationmode  none
attr source  unicastDataSentDown
attr title  "unicast packet sent down of type DATA, vector(packetBytes)"
vector 806  Net802154MultiGateway.host[44].wrappedHost.wlan[0].mac  unicastDataSentDown:vector(packetBytes)  ETV
attr interpolationmode  none
attr source  unicastDataSentDown
attr title  "unicast packet sent down of type DATA, vector(packetBytes)"
vector 1004  Net802154MultiGateway.host[55].wrappedHost.wlan[0].mac  unicastDataSentDown:vector(packetBytes)  ETV
attr interpolationmode  none
attr source  unicastDataSentDown
attr title  "unicast packet sent down of type DATA, vector(packetBytes)"
vector 950  Net802154MultiGateway.host[52].wrappedHost.wlan[0].mac  unicastDataSentDown:vector(packetBytes)  ETV
attr interpolationmode  none
attr source  unicastDataSentDown
attr title  "unicast packet sent down of type DATA, vector(packetBytes)"
vector 788  Net802154MultiGateway.host[43].wrappedHost.wlan[0].mac  unicastDataSentDown:vector(packetBytes)  ETV
attr interpolationmode  none
attr source  unicastDataSentDown
attr title  "unicast packet sent down of type DATA, vector(packetBytes)"
vector 1076  Net802154MultiGateway.host[59].wrappedHost.wlan[0].mac  unicastDataSentDown:vector(packetBytes)  ETV
attr interpolationmode  none
attr source  unicastDataSentDown
attr title  "unicast packet sent down of type DATA, vector(packetBytes)"
vector 986  Net802154MultiGateway.host[54].wrappedHost.wlan[0].mac  unicastDataSentDown:vector(packetBytes)  ETV
attr interpolationmode  none
attr source  unicastDataSentDown
attr title  "unicast packet sent down of type DATA, vector(packetBytes)"
vector 1094  Net802154MultiGateway.host[60].wrappedHost.wlan[0].mac  unicastDataSentDown:vector(packetBytes)  ETV
attr interpolationmode  none
attr source  unicastDataSentDown
attr title  "unicast packet sent down of type DATA, vector(packetBytes)"
vector 914  Net802154MultiGateway.host[50].wrappedHost.wlan[0].mac  unicastDataSentDown:vector(packetBytes)  ETV
attr interpolationmode  none
attr source  unicastDataSentDown
attr title  "unicast packet sent down of type DATA, vector(packetBytes)"
vector 842  Net802154MultiGateway.host[46].wrappedHost.wlan[0].mac  unicastDataSentDown:vector(packetBytes)  ETV
attr interpolationmode  none
attr source  unicastDataSentDown
attr title  "unicast packet sent down of type DATA, vector(packetBytes)"
vector 1022  Net802154MultiGateway.host[56].wrappedHost.wlan[0].mac  unicastDataSentDown:vector(packetBytes)  ETV
attr interpolationmode  none
attr source  unicastDataSentDown
attr title  "unicast packet sent down of type DATA, vector(packetBytes)"
vector 698  Net802154MultiGateway.host[38].wrappedHost.wlan[0].mac  unicastDataSentDown:vector(packetBytes)  ETV
attr interpolationmode  none
attr source  unicastDataSentDown
attr title  "unicast packet sent down of type DATA, vector(packetBytes)"
vector 374  Net802154MultiGateway.host[20].wrappedHost.wlan[0].mac  unicastDataSentDown:vector(packetBytes)  ETV
attr interpolationmode  none
attr source  unicastDataSentDown
attr title  "unicast packet sent down of type DATA, vector(packetBytes)"
vector 734  Net802154MultiGateway.host[40].wrappedHost.wlan[0].mac  unicastDataSentDown:vector(packetBytes)  ETV
attr interpolationmode  none
attr source  unicastDataSentDown
attr title  "unicast packet sent down of type DATA, vector(packetBytes)"
vector 1040  Net802154MultiGateway.host[57].wrappedHost.wlan[0].mac  unicastDataSentDown:vector(packetBytes)  ETV
attr interpolationmode  none
attr source  unicastDataSentDown
attr title  "unicast packet sent down of type DATA, vector(packetBytes)"
vector 140  Net802154MultiGateway.host[7].wrappedHost.wlan[0].mac  unicastDataSentDown:vector(packetBytes)  ETV
attr interpolationmode  none
attr source  unicastDataSentDown
attr title  "unicast packet sent down of type DATA, vector(packetBytes)"
vector 392  Net802154MultiGateway.host[21].wrappedHost.wlan[0].mac  unicastDataSentDown:vector(packetBytes)  ETV
attr interpolationmode  none
attr source  unicastDataSentDown
attr title  "unicast packet sent down of type DATA, vector(packetBytes)"
vector 356  Net802154MultiGateway.host[19].wrappedHost.wlan[0].mac  unicastDataSentDown:vector(packetBytes)  ETV
attr interpolationmode  none
attr source  unicastDataSentDown
attr title  "unicast packet sent down of type DATA, vector(packetBytes)"
vector 410  Net802154MultiGateway.host[22].wrappedHost.wlan[0].mac  unicastDataSentDown:vector(packetBytes)  ETV
attr interpolationmode  none
attr source  unicastDataSentDown
attr title  "unicast packet sent down of type DATA, vector(packetBytes)"
vector 500  Net802154MultiGateway.host[27].wrappedHost.wlan[0].mac  unicastDataSentDown:vector(packetBytes)  ETV
attr interpolationmode  none
attr source  unicastDataSentDown
attr title  "unicast packet sent down of type DATA, vector(packetBytes)"
vector 644  Net802154MultiGateway.host[35].wrappedHost.wlan[0].mac  unicastDataSentDown:vector(packetBytes)  ETV
attr interpolationmode  none
attr source  unicastDataSentDown
attr title  "unicast packet sent down of type DATA, vector(packetBytes)"
vector 464  Net802154MultiGateway.host[25].wrappedHost.wlan[0].mac  unicastDataSentDown:vector(packetBytes)  ETV
attr interpolationmode  none
attr source  unicastDataSentDown
attr title  "unicast packet sent down of type DATA, vector(packetBytes)"
vector 518  Net802154MultiGateway.host[28].wrappedHost.wlan[0].mac  unicastDataSentDown:vector(packetBytes)  ETV
attr interpolationmode  none
attr source  unicastDataSentDown
attr title  "unicast packet sent down of type DATA, vector(packetBytes)"
vector 230  Net802154MultiGateway.host[12].wrappedHost.wlan[0].mac  unicastDataSentDown:vector(packetBytes)  ETV
attr interpolationmode  none
attr source  unicastDataSentDown
attr title  "unicast packet sent down of type DATA, vector(packetBytes)"
vector 50  Net802154MultiGateway.host[2].wrappedHost.wlan[0].mac  unicastDataSentDown:vector(packetBytes)  ETV
attr interpolationmode  none
attr source  unicastDataSentDown
attr title  "unicast packet sent down of type DATA, vector(packetBytes)"
vector 428  Net802154MultiGateway.host[23].wrappedHost.wlan[0].mac  unicastDataSentDown:vector(packetBytes)  ETV
attr interpolationmode  none
attr source  unicastDataSentDown
attr title  "unicast packet sent down of type DATA, vector(packetBytes)"
vector 770  Net802154MultiGateway.host[42].wrappedHost.wlan[0].mac  unicastDataSentDown:vector(packetBytes)  ETV
attr interpolationmode  none
attr source  unicastDataSentDown
attr title  "unicast packet sent down of type DATA, vector(packetBytes)"
vector 1041  Net802154MultiGateway.host[57].wrappedHost.wlan[0].mac  broadDataSentDown:vector(packetBytes)  ETV
attr interpolationmode  none
attr source  broadcastDataSentDown
attr title  "broadcast packet sent down of type DATA, vector(packetBytes)"
vector 446  Net802154MultiGateway.host[24].wrappedHost.wlan[0].mac  unicastDataSentDown:vector(packetBytes)  ETV
attr interpolationmode  none
attr source  unicastDataSentDown
attr title  "unicast packet sent down of type DATA, vector(packetBytes)"
vector 608  Net802154MultiGateway.host[33].wrappedHost.wlan[0].mac  unicastDataSentDown:vector(packetBytes)  ETV
attr interpolationmode  none
attr source  unicastDataSentDown
attr title  "unicast packet sent down of type DATA, vector(packetBytes)"
vector 662  Net802154MultiGateway.host[36].wrappedHost.wlan[0].mac  unicastDataSentDown:vector(packetBytes)  ETV
attr interpolationmode  none
attr source  unicastDataSentDown
attr title  "unicast packet sent down of type DATA, vector(packetBytes)"
vector 158  Net802154MultiGateway.host[8].wrappedHost.wlan[0].mac  unicastDataSentDown:vector(packetBytes)  ETV
attr interpolationmode  none
attr source  unicastDataSentDown
attr title  "unicast packet sent down of type DATA, vector(packetBytes)"
vector 212  Net802154MultiGateway.host[11].wrappedHost.wlan[0].mac  unicastDataSentDown:vector(packetBytes)  ETV
attr interpolationmode  none
attr source  unicastDataSentDown
attr title  "unicast packet sent down of type DATA, vector(packetBytes)"
vector 554  Net802154MultiGateway.host[30].wrappedHost.wlan[0].mac  unicastDataSentDown:vector(packetBytes)  ETV
attr interpolationmode  none
attr source  unicastDataSentDown
attr title  "unicast packet sent down of type DATA, vector(packetBytes)"
vector 176  Net802154MultiGateway.host[9].wrappedHost.wlan[0].mac  unicastDataSentDown:vector(packetBytes)  ETV
attr interpolationmode  none
attr source  unicastDataSentDown
attr title  "unicast packet sent down of type DATA, vector(packetBytes)"
vector 338  Net802154MultiGateway.host[18].wrappedHost.wlan[0].mac  unicastDataSentDown:vector(packetBytes)  ETV
attr interpolationmode  none
attr source  unicastDataSentDown
attr title  "unicast packet sent down of type DATA, vector(packetBytes)"
vector 284  Net802154MultiGateway.host[15].wrappedHost.wlan[0].mac  unicastDataSentDown:vector(packetBytes)  ETV
attr interpolationmode  none
attr source  unicastDataSentDown
attr title  "unicast packet sent down of type DATA, vector(packetBytes)"
vector 248  Net802154MultiGateway.host[13].wrappedHost.wlan[0].mac  unicastDataSentDown:vector(packetBytes)  ETV
attr interpolationmode  none
attr source  unicastDataSentDown
attr title  "unicast packet sent down of type DATA, vector(packetBytes)"
vector 590  Net802154MultiGateway.host[32].wrappedHost.wlan[0].mac  unicastDataSentDown:vector(packetBytes)  ETV
attr interpolationmode  none
attr source  unicastDataSentDown
attr title  "unicast packet sent down of type DATA, vector(packetBytes)"
vector 626  Net802154MultiGateway.host[34].wrappedHost.wlan[0].mac  unicastDataSentDown:vector(packetBytes)  ETV
attr interpolationmode  none
attr source  unicastDataSentDown
attr title  "unicast packet sent down of type DATA, vector(packetBytes)"
vector 194  Net802154MultiGateway.host[10].wrappedHost.wlan[0].mac  unicastDataSentDown:vector(packetBytes)  ETV
attr interpolationmode  none
attr source  unicastDataSentDown
attr title  "unicast packet sent down of type DATA, vector(packetBytes)"
vector 32  Net802154MultiGateway.host[1].wrappedHost.wlan[0].mac  unicastDataSentDown:vector(packetBytes)  ETV
attr interpolationmode  none
attr source  unicastDataSentDown
attr title  "unicast packet sent down of type DATA, vector(packetBytes)"
vector 302  Net802154MultiGateway.host[16].wrappedHost.wlan[0].mac  unicastDataSentDown:vector(packetBytes)  ETV
attr interpolationmode  none
attr source  unicastDataSentDown
attr title  "unicast packet sent down of type DATA, vector(packetBytes)"
vector 86  Net802154MultiGateway.host[4].wrappedHost.wlan[0].mac  unicastDataSentDown:vector(packetBytes)  ETV
attr interpolationmode  none
attr source  unicastDataSentDown
attr title  "unicast packet sent down of type DATA, vector(packetBytes)"
vector 572  Net802154MultiGateway.host[31].wrappedHost.wlan[0].mac  unicastDataSentDown:vector(packetBytes)  ETV
attr interpolationmode  none
attr source  unicastDataSentDown
attr title  "unicast packet sent down of type DATA, vector(packetBytes)"
vector 68  Net802154MultiGateway.host[3].wrappedHost.wlan[0].mac  unicastDataSentDown:vector(packetBytes)  ETV
attr interpolationmode  none
attr source  unicastDataSentDown
attr title  "unicast packet sent down of type DATA, vector(packetBytes)"
vector 320  Net802154MultiGateway.host[17].wrappedHost.wlan[0].mac  unicastDataSentDown:vector(packetBytes)  ETV
attr interpolationmode  none
attr source  unicastDataSentDown
attr title  "unicast packet sent down of type DATA, vector(packetBytes)"
vector 104  Net802154MultiGateway.host[5].wrappedHost.wlan[0].mac  unicastDataSentDown:vector(packetBytes)  ETV
attr interpolationmode  none
attr source  unicastDataSentDown
attr title  "unicast packet sent down of type DATA, vector(packetBytes)"
vector 122  Net802154MultiGateway.host[6].wrappedHost.wlan[0].mac  unicastDataSentDown:vector(packetBytes)  ETV
attr interpolationmode  none
attr source  unicastDataSentDown
attr title  "unicast packet sent down of type DATA, vector(packetBytes)"
vector 482  Net802154MultiGateway.host[26].wrappedHost.wlan[0].mac  unicastDataSentDown:vector(packetBytes)  ETV
attr interpolationmode  none
attr source  unicastDataSentDown
attr title  "unicast packet sent down of type DATA, vector(packetBytes)"
vector 266  Net802154MultiGateway.host[14].wrappedHost.wlan[0].mac  unicastDataSentDown:vector(packetBytes)  ETV
attr interpolationmode  none
attr source  unicastDataSentDown
attr title  "unicast packet sent down of type DATA, vector(packetBytes)"
vector 536  Net802154MultiGateway.host[29].wrappedHost.wlan[0].mac  unicastDataSentDown:vector(packetBytes)  ETV
attr interpolationmode  none
attr source  unicastDataSentDown
attr title  "unicast packet sent down of type DATA, vector(packetBytes)"
vector 772  Net802154MultiGateway.host[42].wrappedHost.wlan[0].mac  corruptedFrameReceived:vector(packetBytes)  ETV
attr interpolationmode  none
attr source  corruptedFrameReceived
attr title  "corrupted frame received, vector(packetBytes)"
vector 844  Net802154MultiGateway.host[46].wrappedHost.wlan[0].mac  corruptedFrameReceived:vector(packetBytes)  ETV
attr interpolationmode  none
attr source  corruptedFrameReceived
attr title  "corrupted frame received, vector(packetBytes)"
vector 1024  Net802154MultiGateway.host[56].wrappedHost.wlan[0].mac  corruptedFrameReceived:vector(packetBytes)  ETV
attr interpolationmode  none
attr source  corruptedFrameReceived
attr title  "corrupted frame received, vector(packetBytes)"
vector 546  Net802154MultiGateway.host[30].wrappedHost.trafficgen  sentPk:vector(packetBytes)  ETV
attr interpolationmode  none
attr source  sentPk
attr title  "packets sent, vector(packetBytes)"
vector 550  Net802154MultiGateway.host[30].wrappedHost.trafficgen  PRR:vector  ETV
attr interpolationmode  none
attr source  count(sinkRcvdPk)/count(sentPk)
attr title  "PRR, vector"
vector 564  Net802154MultiGateway.host[31].wrappedHost.trafficgen  sentPk:vector(packetBytes)  ETV
attr interpolationmode  none
attr source  sentPk
attr title  "packets sent, vector(packetBytes)"
vector 568  Net802154MultiGateway.host[31].wrappedHost.trafficgen  PRR:vector  ETV
attr interpolationmode  none
attr source  count(sinkRcvdPk)/count(sentPk)
attr title  "PRR, vector"
vector 132  Net802154MultiGateway.host[7].wrappedHost.trafficgen  sentPk:vector(packetBytes)  ETV
attr interpolationmode  none
attr source  sentPk
attr title  "packets sent, vector(packetBytes)"
vector 136  Net802154MultiGateway.host[7].wrappedHost.trafficgen  PRR:vector  ETV
attr interpolationmode  none
attr source  count(sinkRcvdPk)/count(sentPk)
attr title  "PRR, vector"
vector 978  Net802154MultiGateway.host[54].wrappedHost.trafficgen  sentPk:vector(packetBytes)  ETV
attr interpolationmode  none
attr source  sentPk
attr title  "packets sent, vector(packetBytes)"
vector 982  Net802154MultiGateway.host[54].wrappedHost.trafficgen  PRR:vector  ETV
attr interpolationmode  none
attr source  count(sinkRcvdPk)/count(sentPk)
attr title  "PRR, vector"
vector 528  Net802154MultiGateway.host[29].wrappedHost.trafficgen  sentPk:vector(packetBytes)  ETV
attr interpolationmode  none
attr source  sentPk
attr title  "packets sent, vector(packetBytes)"
vector 532  Net802154MultiGateway.host[29].wrappedHost.trafficgen  PRR:vector  ETV
attr interpolationmode  none
attr source  count(sinkRcvdPk)/count(sentPk)
attr title  "PRR, vector"
vector 780  Net802154MultiGateway.host[43].wrappedHost.trafficgen  sentPk:vector(packetBytes)  ETV
attr interpolationmode  none
attr source  sentPk
attr title  "packets sent, vector(packetBytes)"
vector 784  Net802154MultiGateway.host[43].wrappedHost.trafficgen  PRR:vector  ETV
attr interpolationmode  none
attr source  count(sinkRcvdPk)/count(sentPk)
attr title  "PRR, vector"
vector 438  Net802154MultiGateway.host[24].wrappedHost.trafficgen  sentPk:vector(packetBytes)  ETV
attr interpolationmode  none
attr source  sentPk
attr title  "packets sent, vector(packetBytes)"
vector 442  Net802154MultiGateway.host[24].wrappedHost.trafficgen  PRR:vector  ETV
attr interpolationmode  none
attr source  count(sinkRcvdPk)/count(sentPk)
attr title  "PRR, vector"
vector 78  Net802154MultiGateway.host[4].wrappedHost.trafficgen  sentPk:vector(packetBytes)  ETV
attr interpolationmode  none
attr source  sentPk
attr title  "packets sent, vector(packetBytes)"
vector 82  Net802154MultiGateway.host[4].wrappedHost.trafficgen  PRR:vector  ETV
attr interpolationmode  none
attr source  count(sinkRcvdPk)/count(sentPk)
attr title  "PRR, vector"
vector 168  Net802154MultiGateway.host[9].wrappedHost.trafficgen  sentPk:vector(packetBytes)  ETV
attr interpolationmode  none
attr source  sentPk
attr title  "packets sent, vector(packetBytes)"
vector 172  Net802154MultiGateway.host[9].wrappedHost.trafficgen  PRR:vector  ETV
attr interpolationmode  none
attr source  count(sinkRcvdPk)/count(sentPk)
attr title  "PRR, vector"
vector 186  Net802154MultiGateway.host[10].wrappedHost.trafficgen  sentPk:vector(packetBytes)  ETV
attr interpolationmode  none
attr source  sentPk
attr title  "packets sent, vector(packetBytes)"
vector 190  Net802154MultiGateway.host[10].wrappedHost.trafficgen  PRR:vector  ETV
attr interpolationmode  none
attr source  count(sinkRcvdPk)/count(sentPk)
attr title  "PRR, vector"
vector 816  Net802154MultiGateway.host[45].wrappedHost.trafficgen  sentPk:vector(packetBytes)  ETV
attr interpolationmode  none
attr source  sentPk
attr title  "packets sent, vector(packetBytes)"
vector 820  Net802154MultiGateway.host[45].wrappedHost.trafficgen  PRR:vector  ETV
attr interpolationmode  none
attr source  count(sinkRcvdPk)/count(sentPk)
attr title  "PRR, vector"
vector 134  Net802154MultiGateway.host[7].wrappedHost.trafficgen  sinkRcvdPk:vector(packetBytes)  ETV
attr interpolationmode  none
attr source  sinkRcvdPk
attr title  "own packets received by sink, vector(packetBytes)"
vector 5  Net802154MultiGateway.host[0].wrappedHost.trafficgen  rcvdPk:vector(packetBytes)  ETV
attr interpolationmode  none
attr source  rcvdPk
attr title  "packets received, vector(packetBytes)"
vector 7  Net802154MultiGateway.host[0].wrappedHost.trafficgen  endToEndDelay:vector  ETV
attr interpolationmode  none
attr source  messageAge(rcvdPk)
attr title  "end-to-end delay, vector"
attr unit  s
vector 1050  Net802154MultiGateway.host[58].wrappedHost.trafficgen  sentPk:vector(packetBytes)  ETV
attr interpolationmode  none
attr source  sentPk
attr title  "packets sent, vector(packetBytes)"
vector 1054  Net802154MultiGateway.host[58].wrappedHost.trafficgen  PRR:vector  ETV
attr interpolationmode  none
attr source  count(sinkRcvdPk)/count(sentPk)
attr title  "PRR, vector"
[...]
590	10488665 12114 565219 11283377 31.04256 496.02048 471 120 120 56520 6782400
591	10500779 1250 209426 11176910 12.074864 491.5512 49 29 29 1421 41209
592	10502029 1217 211616 11144260 12.180544431439 490.198512431439 39 5 34 1050 32604
593	10503246 142611 93390 11285733 5.541568347537 496.096608437934 4501 5 120 149689 9217939
600	10645857 3201 5129804 10581522 227.288995423204 465.519380250255 100 76 76 7600 577600
602	10649058 3210 5146560 10614306 228.032912333564 466.903952333564 100 76 76 7600 577600
603	10652268 3821 523042 11264012 30 495.172775051983 121 76 76 9196 698896
604	10656089 8071 5129804 10614306 227.288995423204 466.903952333564 200 0.5 1 -nan -nan
608	10664160 17168 560907 11267416 30.912 495.29856 669 120 120 80280 9633600
609	10681328 1259 212019 11204195 12.191248 492.679664 49 29 29 1421 41209
610	10682587 14005 112489 11291217 6.647168559244 496.313440559244 440 5 120 14600 667506
611	10696592 139220 74839 11279881 4.436928559244 495.841088437934 4396 5 120 155115 10689141
618	10835812 3181 5016652 9870066 222.3784555017 434.593621807865 100 76 76 7600 577600
620	10838993 3200 5058821 9957843 224.108432333564 438.395792333564 100 76 76 7600 577600
621	10842193 3894 523043 11288737 30 496.210445576131 123 76 76 9348 710448
622	10846087 8065 5016652 9957843 222.3784555017 438.395792333564 200 0.5 1 -nan -nan
626	10854152 11469 565234 11290020 31.04256 496.26624 447 120 120 53640 6436800
627	10865621 1248 192355 11220881 11.11368 493.372736 49 29 29 1421 41209
628	10866869 18125 132776 11256712 7.775520538651 494.838880538651 570 5 120 21546 1240146
629	10884994 144186 74835 11291165 4.436928337057 496.313440337057 4557 5 120 136406 7113056
636	11029180 3193 4980783 9754056 220.810657751506 429.519467979147 100 76 76 7600 577600
638	11032373 3200 5022418 9771224 222.626192333564 430.316432333564 100 76 76 7600 577600
639	11035573 4313 523044 11126803 30 489.444701553219 136 76 76 10336 785536
640	11039886 8094 4980783 9771224 220.810657751506 430.316432333564 200 0.33333333333333 1 -nan -nan
644	11047980 12584 550286 11289611 30.55104 496.25856 489 120 120 58680 7041600
645	11060564 1250 245598 11167835 14.027088 491.179536 49 29 29 1421 41209
646	11061814 7810 151467 11209322 8.859072611071 492.894288611071 247 5 120 7409 282905
647	11069624 143132 74837 11291199 4.436928486069 496.313440486069 4518 5 120 152338 9563970
654	11212756 3192 5051346 9491955 223.805377513833 418.041225076083 100 76 76 7600 577600
656	11215948 3200 5073100 9513236 224.730512333564 418.996112333564 100 76 76 7600 577600
657	11219148 4220 523045 11214998 30 493.133224765997 133 76 76 10108 768208
658	11223368 8085 5051346 9513236 223.805377513833 418.996112333564 200 0.5 1 -nan -nan
662	11231453 18723 560913 11267435 30.912 495.29856 729 120 120 87480 10497600
663	11250176 1257 201203 11200199 11.611888 492.541264 49 29 29 1421 41209
664	11251433 16388 131279 11268173 7.752512437934 495.330400521831 515 5 120 17393 794083
665	11267821 156206 74827 11291175 4.436608521831 496.313440347537 4944 5 120 177089 12332883
672	11424027 3189 5060424 9996077 224.188867469133 440.019122303942 100 76 76 7600 577600
674	11427216 3202 5097519 10030005 225.851792333564 441.498512333564 100 76 76 7600 577600
675	11430418 3477 523046 11227223 30 493.625146961147 110 76 76 8360 635360
676	11433895 8135 5060424 10030005 224.188867469133 441.498512333564 200 0.4 1 -nan -nan
680	11442030 5393 530804 11228365 30.05184 493.67808 210 120 120 25200 3024000
681	11447423 1254 191693 11243321 11.077824 494.278256 49 29 29 1421 41209
682	11448677 12378 152164 11200293 8.867712521831 492.542384521831 388 5 120 16603 1127551
683	11461055 74944 131444 11291154 7.754432333564 496.313440333564 2374 5 120 61243 2302169
690	11535999 3186 4976241 9564565 220.603461956379 421.143478674595 100 76 76 7600 577600
692	11539185 3136 5003545 9580740 221.789072333564 421.837712333564 98 76 76 7448 566048
693	11542321 4273 523047 11218298 30 493.266910069541 135 76 76 10260 779760
694	11546594 8463 4976241 9580740 220.603461956379 421.837712333564 198 0.5 1 -nan -nan
698	11555057 6041 531610 11225385 30.05952 493.5552 235 120 120 28200 3384000
699	11561098 1261 178684 11257087 10.341744 494.864432 49 29 29 1421 41209
700	11562359 9680 131313 11206461 7.753088611071 492.776752611071 305 5 34 8444 264202
701	11572039 85077 74822 11291196 4.436608334453 496.313440441768 2729 5 120 72507 2701839
708	11657116 3184 5016977 9272675 222.391532728216 408.507176949938 100 76 76 7600 577600
710	11660300 3200 5049791 9295945 223.747472333564 409.557392333564 100 76 76 7600 577600
711	11663500 4706 523048 11288521 30 496.200334728171 149 76 76 11324 860624
712	11668206 8318 5016977 9295945 222.391532728216 409.557392333564 200 0.33333333333333 1 -nan -nan
716	11676524 6377 530777 11290025 30.05184 496.26624 249 120 120 29880 3585600
717	11682901 1256 239432 11202983 13.680032 492.643408 49 29 29 1421 41209
719	11684157 60629 131307 11290184 7.753088402643 496.270816755512 1921 5 120 48895 1850325
726	11744786 3190 5040215 10041981 223.350451679633 442.05152732468 100 76 76 7600 577600
728	11747976 3203 5111129 10058086 226.458512333564 442.727312333564 100 76 76 7600 577600
729	11751179 3580 523049 11282275 30 495.962157719206 113 76 76 8588 652688
730	11754759 8046 5040215 10058086 223.350451679633 442.727312333564 200 0.33333333333333 1 -nan -nan
734	11762805 5481 549831 11289594 30.54336 496.25856 213 120 120 25560 3067200
735	11768286 1231 415290 11245966 23.733312 494.382592 48 29 29 1392 40368
736	11769517 22962 151424 11288727 8.858752474592 496.207632572016 722 5 120 23624 1039572
737	11792479 63193 131301 11289865 7.753088339748 496.263136679496 2000 5 120 52497 2089853
744	11855672 3190 5092511 9654109 225.626392599745 425.046796227136 100 76 76 7600 577600
746	11858862 3200 5126902 9687270 227.172752333564 426.507152333564 100 76 76 7600 577600
747	11862062 4016 523050 11261654 30 495.069289090315 127 76 76 9652 733552
748	11866078 8005 5092511 9687270 225.626392599745 426.507152333564 200 0.5 1 -nan -nan
752	11874083 5820 530796 11271840 30.05184 495.52128 227 120 120 27240 3268800
753	11879903 1230 368094 11212613 21.061424 493.05704 48 29 29 1392 40368
754	11881133 21383 151664 11285891 8.862144559244 496.098912559244 671 5 120 25668 1491726
755	11902516 60047 131311 11285421 7.753088486069 496.087104559244 1905 5 120 45671 1563191
762	11962563 3193 4978303 10262730 220.686057324535 451.672440440761 100 76 76 7600 577600
764	11965756 3208 4998278 10290791 221.543312333564 452.903312333564 100 76 76 7600 577600
765	11968964 4138 523051 11196967 30 492.388684555204 131 76 76 9956 756656
766	11973102 8018 4978303 10290791 220.686057324535 452.903312333564 200 0.33333333333333 1 -nan -nan
770	11981120 5941 558040 11198105 30.7968 492.44928 231 120 120 27720 3326400
771	11987061 1236 398415 11259891 22.778288 494.999952 48 29 29 1392 40368
772	11988297 94 760651 8162960 38.473792370476 360.297472334453 3 32 34 100 3336
773	11988391 79522 151418 11285885 8.858752370476 496.098912370476 2514 5 120 68994 2838434
780	12067913 3185 4965124 9692195 220.147175766321 426.739745162373 100 76 76 7600 577600
782	12071098 3200 4997659 9714198 221.520272333564 427.705232333564 100 76 76 7600 577600
783	12074298 4080 523052 11248013 30 494.466021600244 129 76 76 9804 745104
784	12078378 8203 4965124 9714198 220.147175766321 427.705232333564 200 0.5 1 -nan -nan
788	12086581 5873 530833 11258331 30.05184 494.92224 229 120 120 27480 3297600
789	12092454 1231 436842 11254213 24.960624 494.74352 48 29 29 1392 40368
790	12093685 98 5253930 10761585 232.630720431439 473.472896334453 3 32 34 98 3204
791	12093783 64500 56265 11285881 3.329088334453 496.098912357641 2037 5 120 65879 3927405
798	12158283 3193 4990053 9845482 221.18565736815 433.593918447767 100 76 76 7600 577600
800	12161476 3200 5016469 9887583 222.372752333564 435.323792333564 100 76 76 7600 577600
801	12164676 4258 523053 11289499 30 496.256104179265 135 76 76 10260 779760
802	12168934 8030 4990053 9887583 221.18565736815 435.323792333564 200 0.33333333333333 1 -nan -nan
806	12176964 5990 530807 11260411 30.05184 495.02976 234 120 120 28080 3369600
807	12182954 1226 356880 11230328 20.443248 493.745552 48 29 29 1392 40368
808	12184180 15997 151949 11285419 8.864576534138 496.087104534138 501 5 120 21984 1535410
809	12200177 80964 74792 11285889 4.434688334453 496.098912534138 2562 5 120 70911 3223685
816	12281141 3184 4971150 9517797 220.409844015718 419.197530695597 100 76 76 7600 577600
818	12284325 3200 5005642 9551598 221.881232333564 420.585872333564 100 76 76 7600 577600
819	12287525 4415 523054 11195331 30 492.326859173127 139 76 76 10564 802864
820	12291940 8176 4971150 9551598 220.409844015718 420.585872333564 200 0.33333333333333 1 -nan -nan
824	12300116 6151 530798 11200756 30.05184 492.57216 239 120 120 28680 3441600
825	12306267 1237 415696 11179987 23.761392 491.669024 48 29 29 1392 40368
826	12307504 17446 171525 11277184 9.96435259794 495.72155259794 564 5 120 22682 1458942
827	12324950 58073 56266 11279474 3.329088334453 495.821920347319 1848 5 120 54235 2915757
834	12383023 3185 5003196 9089106 221.771833910918 400.581509314855 100 76 76 7600 577600
836	12386208 3200 5024603 9132705 222.733712333564 402.399632333564 100 76 76 7600 577600
837	12389408 4868 523055 11271771 30 495.516393934076 154 76 76 11704 889504
838	12394276 8191 5003196 9132705 221.771833910918 402.399632333564 200 0.2 1 -nan -nan
842	12402467 6507 531594 11277899 30.05952 495.76704 254 120 120 30480 3657600
843	12408974 1235 385450 11224744 22.055488 493.517856 48 29 29 1392 40368
844	12410209 159 2545564 2555146 116.136640385565 116.512096385565 5 5 34 139 4517
845	12410368 72081 74793 11279490 4.434688334453 495.821920385565 2288 5 120 66622 3206684
852	12482449 3189 5032136 9880739 223.011916161587 435.06038719956 100 76 76 7600 577600
854	12485638 3200 5053201 9932898 223.878032333564 437.297552333564 100 76 76 7600 577600
855	12488838 4314 523056 11264242 30 495.180656971525 136 76 76 10336 785536
856	12493152 8083 5032136 9932898 223.011916161587 437.297552333564 200 0.33333333333333 1 -nan -nan
860	12501235 6080 530802 11274937 30.05184 495.64416 236 120 120 28320 3398400
861	12507315 1222 356343 11141125 20.40776 490.09168 48 29 29 1392 40368
862	12508537 21295 151595 11279504 8.860672584919 495.821920584919 672 5 120 22890 1128128
863	12529832 53207 152558 11287092 8.872704584919 496.147392343176 1685 5 120 46602 2353030
870	12583039 3186 5004056 9777104 221.811208077278 430.592747760634 100 76 76 7600 577600
872	12586225 3200 5017054 9816118 222.395792333564 432.290192333564 100 76 76 7600 577600
873	12589425 3738 523057 11291409 30 496.327488648298 118 76 76 8968 681568
874	12593163 8067 5004056 9816118 221.811208077278 432.290192333564 200 0.5 1 -nan -nan
878	12601230 5579 530781 11260458 30.05184 495.02976 217 120 120 26040 3124800
879	12606809 1222 409249 11141157 23.400752 490.0956 48 29 29 1392 40368
880	12608031 13764 112463 11291214 6.646528546614 496.313440546614 435 5 120 16347 931549
881	12621795 75033 112554 11277182 6.648448334453 495.72155249778 2384 5 120 69006 3241400
888	12696828 3186 5002319 9045830 221.736758755684 398.691202848539 100 76 76 7600 577600
890	12700014 3200 5091322 9088847 225.567632333564 400.571792333564 100 76 76 7600 577600
891	12703214 5213 523058 11257396 30 494.882762186214 164 76 76 12464 947264
892	12708427 8419 5002319 9088847 221.736758755684 400.571792333564 200 0.5 1 -nan -nan
896	12716846 6773 530789 11260449 30.05184 495.02976 264 120 120 31680 3801600
897	12723619 1233 372492 11257368 21.309408 494.878352 48 29 29 1392 40368
898	12724852 64 7700116 9693332 340.268672421456 426.777920421456 2 34 34 68 2312
899	12724916 54606 112455 11291184 6.64652836376 496.31344036376 1760 5 120 47245 2196527
906	12779522 3185 5176267 9969247 229.338772362685 438.872854315142 100 76 76 7600 577600
908	12782707 3202 5202890 10021995 230.482832333564 441.137552333564 100 76 76 7600 577600
909	12785909 3902 523059 11262049 30 495.086198418569 123 76 76 9348 710448
910	12789811 8171 5176267 10021995 229.338772362685 441.137552333564 200 0.25 1 -nan -nan
914	12797982 5737 531592 11263247 30.05952 495.15264 223 120 120 26760 3211200
915	12803719 1232 367275 11206864 21.022016 492.798464 48 29 29 1392 40368
916	12804951 62 524709 9962380 30.009200334453 438.576960421456 2 32 34 66 2180
917	12805013 68286 112456 11291185 6.64652836376 496.31344036376 2186 5 120 61161 2698305
924	12873299 3192 5046825 9436192 223.625933847243 415.568821339469 100 76 76 7600 577600
926	12876491 3200 5086628 9480551 225.344912333564 417.544592333564 100 76 76 7600 577600
927	12879691 3825 523060 11204472 30 492.691799959185 121 76 76 9196 698896
928	12883516 8126 5046825 9480551 223.625933847243 417.544592333564 200 0.42857142857143 1 -nan -nan
932	12891642 5674 530797 11216393 30.05184 493.18656 221 120 120 26520 3182400
933	12897316 1231 357164 11185937 20.458896 491.939504 48 29 29 1392 40368
934	12898547 13879 112464 11276559 6.646528546614 495.69904049778 438 5 120 14014 579690
935	12912426 60275 131261 11291215 7.752448334453 496.313440546614 1921 5 120 55074 2928482
942	12972701 3210 4988031 10521472 221.113036948594 462.945276408697 100 76 76 7600 577600
944	12975911 3219 4998450 10564164 221.550992333564 464.807312333564 100 76 76 7600 577600
945	12979130 3949 523061 11212260 30 493.041000879932 125 76 76 9500 722000
946	12983079 8131 4988031 10564164 221.113036948594 464.807312333564 200 0.5 1 -nan -nan
950	12991210 5790 530815 11212772 30.05184 493.06368 225 120 120 27000 3240000
951	12997000 1237 409225 11158999 23.399424 490.79192 48 29 29 1392 40368
952	12998237 21935 93404 11285345 5.541568584919 496.084224584919 692 5 120 21611 917971
953	13020172 69582 211359 11291162 12.178432343176 496.313440334453 2198 5 120 60991 2737597
960	13089754 3189 5045761 9971084 223.590470616802 438.95964457946 100 76 76 7600 577600
962	13092943 3200 5078688 9995536 224.976272333564 440.000912333564 100 76 76 7600 577600
963	13096143 4366 523062 11169801 30 491.258442870574 138 76 76 10488 797088
964	13100509 8156 5045761 9995536 223.590470616802 440.000912333564 200 0.33333333333333 1 -nan -nan
968	13108665 6108 530778 11186911 30.05184 491.97312 238 120 120 28560 3427200
969	13114773 1238 383188 11248967 21.919072 494.521856 48 29 29 1392 40368
971	13116011 67035 93394 11285337 5.541568385565 496.084224385565 2127 5 120 57743 2520145
978	13183046 3187 4965056 8830250 220.140564207279 389.234494889487 100 76 76 7600 577600
980	13186233 3200 5020324 8884932 222.534032333564 391.601552333564 100 76 76 7600 577600
981	13189433 4718 523063 11266195 30 495.274049394466 150 76 76 11400 866400
982	13194151 8246 4965056 8884932 220.140564207279 391.601552333564 200 0.33333333333333 1 -nan -nan
986	13202397 6385 531580 11269281 30.05952 495.3984 250 120 120 30000 3600000
987	13208782 1229 374133 11176961 21.396528 491.555296 48 29 29 1392 40368
988	13210011 17307 211734 11276565 12.182016945477 495.69904059794 561 5 34 15547 468363
989	13227318 76656 93386 11291163 5.541568347319 496.313440334453 2441 5 120 65598 2762464
996	13303974 3190 4990524 9312602 221.210481020803 410.29102746816 100 76 76 7600 577600
998	13307164 3200 4998103 9333978 221.535632333564 411.231632333564 100 76 76 7600 577600
999	13310364 4218 523064 11282405 30 495.974143994 133 76 76 10108 768208
1000	13314582 8450 4990524 9333978 221.210481020803 411.231632333564 200 0.4 1 -nan -nan
1004	13323032 6218 530808 11283107 30.05184 496.0128 233 120 120 27960 3355200
1005	13329250 1306 233046 11156078 13.323312 490.68088 49 29 29 1421 41209
1006	13330556 14387 171999 11273867 9.968704534138 495.589312509706 438 5 120 14085 566715
1007	13344943 90712 93398 11285339 5.541568509706 496.084224509706 2779 5 120 72784 2764850
1014	13435655 3287 4979020 9621083 220.730639793441 423.58154801934 100 76 76 7600 577600
1016	13438942 3300 4986015 9683735 221.021072333564 426.361232333564 100 76 76 7600 577600
1017	13442242 4739 523065 11251355 30 494.616729900584 145 76 76 11020 837520
1018	13446981 8326 4979020 9683735 220.730639793441 426.361232333564 200 0.5 1 -nan -nan
1022	13455307 6525 531605 11252047 30.05952 494.66112 245 120 120 29400 3528000
1023	13461832 1307 239030 11144199 13.661872 490.197392 49 29 29 1421 41209
1024	13463139 66 4545516 8471030 202.156480431439 373.692480431439 2 32 34 66 2180
1025	13463205 72347 131501 11264936 7.754688357641 495.207520431439 2217 5 120 58265 2284473
1032	13535552 3291 5009999 10359636 222.07494814035 456.000265742756 100 76 76 7600 577600
1034	13538843 3274 5058644 10403471 224.100752333564 457.841552333564 99 76 76 7524 571824
1035	13542117 3353 523066 11248589 30 494.494614182461 103 76 76 7828 594928
1036	13545470 8845 5009999 10403471 222.07494814035 457.841552333564 199 0.5 1 -nan -nan
1040	13554315 5416 549851 11254953 30.54336 494.784 203 120 120 24360 2923200
1041	13559731 1259 559034 11203645 30.851888 492.659712 47 29 29 1363 39527
1042	13560990 33 7034030 7034030 310.781056334453 310.781056334453 1 32 32 32 1024
1043	13561023 87267 74832 11291160 4.436928334453 496.313440334453 2671 5 120 78973 3729949
1050	13648290 3290 4973335 9815736 220.495441554942 432.271487036939 100 76 76 7600 577600
1052	13651580 3300 5022593 9885503 222.633872333564 435.231632333564 100 76 76 7600 577600
1053	13654880 4044 523067 11236935 30 494.031419987794 124 76 76 9424 716224
1054	13658924 8260 4973335 9885503 220.495441554942 435.231632333564 200 0.33333333333333 1 -nan -nan
1058	13667184 5970 530786 11237148 30.05184 494.04672 224 120 120 26880 3225600
1059	13673154 1311 203119 11173463 11.716352 491.409296 49 29 29 1421 41209
1060	13674465 19891 171650 11252349 9.965312559244 494.665696916885 606 5 120 18517 680561
1061	13694356 76515 131321 11276537 7.753152337057 495.699040337057 2345 5 120 65687 2974985
1068	13770871 3285 4978891 9153735 220.721958705304 403.307135473752 100 76 76 7600 577600
1070	13774156 3300 5034652 9170224 223.117712333564 403.989392333564 100 76 76 7600 577600
1071	13777456 5046 523068 11290971 30 496.304679635088 154 76 76 11704 889504
1072	13782502 8336 4978891 9170224 220.721958705304 403.989392333564 200 0.25 1 -nan -nan
1076	13790838 6755 530834 11286622 30.05184 496.13568 253 120 120 30360 3643200
1077	13797593 1308 187577 11162319 10.847984 490.945952 49 29 29 1421 41209
1078	13798901 17855 131481 11200295 7.754432572016 492.542384572016 544 5 120 23273 1617851
1079	13816756 79188 74833 11291161 4.436928334453 496.313440334453 2429 5 120 66388 2781884
1086	13895944 3284 4976369 9403026 220.61491952799 414.167539066168 100 76 76 7600 577600
1088	13899228 3300 5003374 9424191 221.781392333564 415.063952333564 100 76 76 7600 577600
1089	13902528 4840 523069 11229424 30 493.708162954355 148 76 76 11248 854848
1090	13907368 8474 4976369 9424191 220.61491952799 415.063952333564 200 0.5 1 -nan -nan
1094	13915842 6617 531582 11240545 30.05952 494.1696 248 120 120 29760 3571200
1095	13922459 1309 183522 11248433 10.614912 494.485968 49 29 29 1421 41209
1097	13923768 71926 131331 11262034 7.753152402643 495.084640402643 2206 5 120 67912 3673258
1104	13995694 3290 4983107 9364686 220.903361690305 412.558873288118 100 76 76 7600 577600
1106	13998984 3300 5025434 9398243 222.764432333564 413.973392333564 100 76 76 7600 577600
1107	14002284 4844 523070 11246479 30 494.405652260207 148 76 76 11248 854848
1108	14007128 8292 4983107 9398243 220.903361690305 413.973392333564 200 0.5 1 -nan -nan
1112	14015420 6619 530779 11266307 30.05184 495.27552 248 120 120 29760 3571200
1113	14022039 1304 237141 11209300 13.551488 492.893168 49 29 29 1421 41209
1114	14023343 18299 131341 11262048 7.753152611071 495.084640611071 558 5 120 19531 1039629
1115	14041642 82595 74823 11291197 4.436608334453 496.313440441768 2565 5 120 75451 3755443
