version 2
run CSMA-0-20161013-07:47:02-18115
attr beaconInterval 10s
attr configname CSMA
attr datetime 20161013-07:47:02
attr experiment CSMA
attr inifile simulations/omnetpp.ini
attr iterationvars "$packetLength=76B, $sendInt=2, $beaconInterval=10s, $0=10s/2, $1=3 * 10s"
attr iterationvars2 "$packetLength=76B, $sendInt=2, $beaconInterval=10s, $0=10s/2, $1=3 * 10s, $repetition=0"
attr measurement "$packetLength=76B, $sendInt=2, $beaconInterval=10s, $0=10s/2, $1=3 * 10s"
attr network multi_gateway.Net802154MultiGateway
attr packetLength 76B
attr processid 18115
attr repetition 0
attr replication #0
attr resultdir ../results
attr runnumber 0
attr seedset 0
attr sendInt 2
param **.configurator.addStaticRoutes false
param **.dumpRoutes false
param **.dumpTopology false
param **.host[*].**.gpsr.beaconInterval "${beaconInterval = 10s}"
param **.host[*].**.gpsr.maxJitter ${$beaconInterval/2}
param **.host[*].**.gpsr.neighborValidityInterval "${3 * $beaconInterval}"
param **.host[*].**.gpsr.positionByteLength "2 B"
param **.host[*].**.gpsr.routingStrategy "\"StraightestPath\""
param **.host[*].**.trafficgen.continueSendingDummyPackets true
param **.host[*].**.trafficgen.coolDownDuration 15s
param **.host[*].**.trafficgen.destAddresses "\"host[0].wrappedHost(modulepath)\""
param **.host[*].**.trafficgen.packetLength "${packetLength = 76B}"
param **.host[*].**.trafficgen.sendInterval "exponential(${sendInt=1.0..2.5 step 0.25}s)"
param **.host[*].**.trafficgen.startTime 30s
param **.host[*].**.trafficgen.warmUpDuration 190s
param **.host[*].**.wlan[*].mac.queueLength 30
param **.host[*].**.wlan[*].macType "\"Ieee802154NarrowbandMac\""
param **.host[*].**.wlan[*].radio.receiver.minInterferencePower "-100 dBm"
param **.host[*].hostType "\"SimpleHost\""
param **.host[*].mobilityType "\"StaticConcentricWrappingMobility\""
param **.host[0].**.trafficgen.numPackets 0
param **.host[1..].**.trafficgen.numPackets 100
param **.numHosts 62
param **.radioMedium.rangeFilter "\"interferenceRange\""
param **.routingTable.addressType "\"modulepath\""
param **.routingTableType "\"GenericRoutingTable\""

vector 9  Net802154MultiGateway.host[0].wrappedHost.trafficgen  sentDummyPk:vector(packetBytes)  ETV
attr interpolationmode  none
attr source  sentDummyPk
attr title  "dummy packets sent, vector(packetBytes)"
vector 23  Net802154MultiGateway.host[1].wrappedHost.trafficgen  sentDummyPk:vector(packetBytes)  ETV
attr interpolationmode  none
attr source  sentDummyPk
attr title  "dummy packets sent, vector(packetBytes)"
vector 37  Net802154MultiGateway.host[2].wrappedHost.trafficgen  sentDummyPk:vector(packetBytes)  ETV
attr interpolationmode  none
attr source  sentDummyPk
attr title  "dummy packets sent, vector(packetBytes)"
vector 51  Net802154MultiGateway.host[3].wrappedHost.trafficgen  sentDummyPk:vector(packetBytes)  ETV
attr interpolationmode  none
attr source  sentDummyPk
attr title  "dummy packets sent, vector(packetBytes)"
vector 65  Net802154MultiGateway.host[4].wrappedHost.trafficgen  sentDummyPk:vector(packetBytes)  ETV
attr interpolationmode  none
attr source  sentDummyPk
attr title  "dummy packets sent, vector(packetBytes)"
vector 79  Net802154MultiGateway.host[5].wrappedHost.trafficgen  sentDummyPk:vector(packetBytes)  ETV
attr interpolationmode  none
attr source  sentDummyPk
attr title  "dummy packets sent, vector(packetBytes)"
vector 93  Net802154MultiGateway.host[6].wrappedHost.trafficgen  sentDummyPk:vector(packetBytes)  ETV
attr interpolationmode  none
attr source  sentDummyPk
attr title  "dummy packets sent, vector(packetBytes)"
vector 107  Net802154MultiGateway.host[7].wrappedHost.trafficgen  sentDummyPk:vector(packetBytes)  ETV
attr interpolationmode  none
attr source  sentDummyPk
attr title  "dummy packets sent, vector(packetBytes)"
vector 121  Net802154MultiGateway.host[8].wrappedHost.trafficgen  sentDummyPk:vector(packetBytes)  ETV
attr interpolationmode  none
attr source  sentDummyPk
attr title  "dummy packets sent, vector(packetBytes)"
vector 135  Net802154MultiGateway.host[9].wrappedHost.trafficgen  sentDummyPk:vector(packetBytes)  ETV
attr interpolationmode  none
attr source  sentDummyPk
attr title  "dummy packets sent, vector(packetBytes)"
vector 149  Net802154MultiGateway.host[10].wrappedHost.trafficgen  sentDummyPk:vector(packetBytes)  ETV
attr interpolationmode  none
attr source  sentDummyPk
attr title  "dummy packets sent, vector(packetBytes)"
vector 163  Net802154MultiGateway.host[11].wrappedHost.trafficgen  sentDummyPk:vector(packetBytes)  ETV
attr interpolationmode  none
attr source  sentDummyPk
attr title  "dummy packets sent, vector(packetBytes)"
vector 177  Net802154MultiGateway.host[12].wrappedHost.trafficgen  sentDummyPk:vector(packetBytes)  ETV
attr interpolationmode  none
attr source  sentDummyPk
attr title  "dummy packets sent, vector(packetBytes)"
vector 191  Net802154MultiGateway.host[13].wrappedHost.trafficgen  sentDummyPk:vector(packetBytes)  ETV
attr interpolationmode  none
attr source  sentDummyPk
attr title  "dummy packets sent, vector(packetBytes)"
vector 205  Net802154MultiGateway.host[14].wrappedHost.trafficgen  sentDummyPk:vector(packetBytes)  ETV
attr interpolationmode  none
attr source  sentDummyPk
attr title  "dummy packets sent, vector(packetBytes)"
vector 219  Net802154MultiGateway.host[15].wrappedHost.trafficgen  sentDummyPk:vector(packetBytes)  ETV
attr interpolationmode  none
attr source  sentDummyPk
attr title  "dummy packets sent, vector(packetBytes)"
vector 233  Net802154MultiGateway.host[16].wrappedHost.trafficgen  sentDummyPk:vector(packetBytes)  ETV
attr interpolationmode  none
attr source  sentDummyPk
attr title  "dummy packets sent, vector(packetBytes)"
vector 247  Net802154MultiGateway.host[17].wrappedHost.trafficgen  sentDummyPk:vector(packetBytes)  ETV
attr interpolationmode  none
attr source  sentDummyPk
attr title  "dummy packets sent, vector(packetBytes)"
vector 261  Net802154MultiGateway.host[18].wrappedHost.trafficgen  sentDummyPk:vector(packetBytes)  ETV
attr interpolationmode  none
attr source  sentDummyPk
attr title  "dummy packets sent, vector(packetBytes)"
vector 275  Net802154MultiGateway.host[19].wrappedHost.trafficgen  sentDummyPk:vector(packetBytes)  ETV
attr interpolationmode  none
attr source  sentDummyPk
attr title  "dummy packets sent, vector(packetBytes)"
vector 289  Net802154MultiGateway.host[20].wrappedHost.trafficgen  sentDummyPk:vector(packetBytes)  ETV
attr interpolationmode  none
attr source  sentDummyPk
attr title  "dummy packets sent, vector(packetBytes)"
vector 303  Net802154MultiGateway.host[21].wrappedHost.trafficgen  sentDummyPk:vector(packetBytes)  ETV
attr interpolationmode  none
attr source  sentDummyPk
attr title  "dummy packets sent, vector(packetBytes)"
vector 317  Net802154MultiGateway.host[22].wrappedHost.trafficgen  sentDummyPk:vector(packetBytes)  ETV
attr interpolationmode  none
attr source  sentDummyPk
attr title  "dummy packets sent, vector(packetBytes)"
vector 331  Net802154MultiGateway.host[23].wrappedHost.trafficgen  sentDummyPk:vector(packetBytes)  ETV
attr interpolationmode  none
attr source  sentDummyPk
attr title  "dummy packets sent, vector(packetBytes)"
vector 345  Net802154MultiGateway.host[24].wrappedHost.trafficgen  sentDummyPk:vector(packetBytes)  ETV
attr interpolationmode  none
attr source  sentDummyPk
attr title  "dummy packets sent, vector(packetBytes)"
vector 359  Net802154MultiGateway.host[25].wrappedHost.trafficgen  sentDummyPk:vector(packetBytes)  ETV
attr interpolationmode  none
attr source  sentDummyPk
attr title  "dummy packets sent, vector(packetBytes)"
vector 373  Net802154MultiGateway.host[26].wrappedHost.trafficgen  sentDummyPk:vector(packetBytes)  ETV
attr interpolationmode  none
attr source  sentDummyPk
attr title  "dummy packets sent, vector(packetBytes)"
vector 387  Net802154MultiGateway.host[27].wrappedHost.trafficgen  sentDummyPk:vector(packetBytes)  ETV
attr interpolationmode  none
attr source  sentDummyPk
attr title  "dummy packets sent, vector(packetBytes)"
vector 401  Net802154MultiGateway.host[28].wrappedHost.trafficgen  sentDummyPk:vector(packetBytes)  ETV
attr interpolationmode  none
attr source  sentDummyPk
attr title  "dummy packets sent, vector(packetBytes)"
vector 415  Net802154MultiGateway.host[29].wrappedHost.trafficgen  sentDummyPk:vector(packetBytes)  ETV
attr interpolationmode  none
attr source  sentDummyPk
attr title  "dummy packets sent, vector(packetBytes)"
vector 429  Net802154MultiGateway.host[30].wrappedHost.trafficgen  sentDummyPk:vector(packetBytes)  ETV
attr interpolationmode  none
attr source  sentDummyPk
attr title  "dummy packets sent, vector(packetBytes)"
vector 443  Net802154MultiGateway.host[31].wrappedHost.trafficgen  sentDummyPk:vector(packetBytes)  ETV
attr interpolationmode  none
attr source  sentDummyPk
attr title  "dummy packets sent, vector(packetBytes)"
vector 457  Net802154MultiGateway.host[32].wrappedHost.trafficgen  sentDummyPk:vector(packetBytes)  ETV
attr interpolationmode  none
attr source  sentDummyPk
attr title  "dummy packets sent, vector(packetBytes)"
vector 471  Net802154MultiGateway.host[33].wrappedHost.trafficgen  sentDummyPk:vector(packetBytes)  ETV
attr interpolationmode  none
attr source  sentDummyPk
attr title  "dummy packets sent, vector(packetBytes)"
vector 485  Net802154MultiGateway.host[34].wrappedHost.trafficgen  sentDummyPk:vector(packetBytes)  ETV
attr interpolationmode  none
attr source  sentDummyPk
attr title  "dummy packets sent, vector(packetBytes)"
vector 499  Net802154MultiGateway.host[35].wrappedHost.trafficgen  sentDummyPk:vector(packetBytes)  ETV
attr interpolationmode  none
attr source  sentDummyPk
attr title  "dummy packets sent, vector(packetBytes)"
vector 513  Net802154MultiGateway.host[36].wrappedHost.trafficgen  sentDummyPk:vector(packetBytes)  ETV
attr interpolationmode  none
attr source  sentDummyPk
attr title  "dummy packets sent, vector(packetBytes)"
vector 527  Net802154MultiGateway.host[37].wrappedHost.trafficgen  sentDummyPk:vector(packetBytes)  ETV
attr interpolationmode  none
attr source  sentDummyPk
attr title  "dummy packets sent, vector(packetBytes)"
vector 541  Net802154MultiGateway.host[38].wrappedHost.trafficgen  sentDummyPk:vector(packetBytes)  ETV
attr interpolationmode  none
attr source  sentDummyPk
attr title  "dummy packets sent, vector(packetBytes)"
vector 555  Net802154MultiGateway.host[39].wrappedHost.trafficgen  sentDummyPk:vector(packetBytes)  ETV
attr interpolationmode  none
attr source  sentDummyPk
attr title  "dummy packets sent, vector(packetBytes)"
vector 569  Net802154MultiGateway.host[40].wrappedHost.trafficgen  sentDummyPk:vector(packetBytes)  ETV
attr interpolationmode  none
attr source  sentDummyPk
attr title  "dummy packets sent, vector(packetBytes)"
vector 583  Net802154MultiGateway.host[41].wrappedHost.trafficgen  sentDummyPk:vector(packetBytes)  ETV
attr interpolationmode  none
attr source  sentDummyPk
attr title  "dummy packets sent, vector(packetBytes)"
vector 597  Net802154MultiGateway.host[42].wrappedHost.trafficgen  sentDummyPk:vector(packetBytes)  ETV
attr interpolationmode  none
attr source  sentDummyPk
attr title  "dummy packets sent, vector(packetBytes)"
vector 611  Net802154MultiGateway.host[43].wrappedHost.trafficgen  sentDummyPk:vector(packetBytes)  ETV
attr interpolationmode  none
attr source  sentDummyPk
attr title  "dummy packets sent, vector(packetBytes)"
vector 625  Net802154MultiGateway.host[44].wrappedHost.trafficgen  sentDummyPk:vector(packetBytes)  ETV
attr interpolationmode  none
attr source  sentDummyPk
attr title  "dummy packets sent, vector(packetBytes)"
vector 639  Net802154MultiGateway.host[45].wrappedHost.trafficgen  sentDummyPk:vector(packetBytes)  ETV
attr interpolationmode  none
attr source  sentDummyPk
attr title  "dummy packets sent, vector(packetBytes)"
vector 653  Net802154MultiGateway.host[46].wrappedHost.trafficgen  sentDummyPk:vector(packetBytes)  ETV
attr interpolationmode  none
attr source  sentDummyPk
attr title  "dummy packets sent, vector(packetBytes)"
vector 667  Net802154MultiGateway.host[47].wrappedHost.trafficgen  sentDummyPk:vector(packetBytes)  ETV
attr interpolationmode  none
attr source  sentDummyPk
attr title  "dummy packets sent, vector(packetBytes)"
vector 681  Net802154MultiGateway.host[48].wrappedHost.trafficgen  sentDummyPk:vector(packetBytes)  ETV
attr interpolationmode  none
attr source  sentDummyPk
attr title  "dummy packets sent, vector(packetBytes)"
vector 695  Net802154MultiGateway.host[49].wrappedHost.trafficgen  sentDummyPk:vector(packetBytes)  ETV
attr interpolationmode  none
attr source  sentDummyPk
attr title  "dummy packets sent, vector(packetBytes)"
vector 709  Net802154MultiGateway.host[50].wrappedHost.trafficgen  sentDummyPk:vector(packetBytes)  ETV
attr interpolationmode  none
attr source  sentDummyPk
attr title  "dummy packets sent, vector(packetBytes)"
vector 723  Net802154MultiGateway.host[51].wrappedHost.trafficgen  sentDummyPk:vector(packetBytes)  ETV
attr interpolationmode  none
attr source  sentDummyPk
attr title  "dummy packets sent, vector(packetBytes)"
vector 737  Net802154MultiGateway.host[52].wrappedHost.trafficgen  sentDummyPk:vector(packetBytes)  ETV
attr interpolationmode  none
attr source  sentDummyPk
attr title  "dummy packets sent, vector(packetBytes)"
vector 751  Net802154MultiGateway.host[53].wrappedHost.trafficgen  sentDummyPk:vector(packetBytes)  ETV
attr interpolationmode  none
attr source  sentDummyPk
attr title  "dummy packets sent, vector(packetBytes)"
vector 765  Net802154MultiGateway.host[54].wrappedHost.trafficgen  sentDummyPk:vector(packetBytes)  ETV
attr interpolationmode  none
attr source  sentDummyPk
attr title  "dummy packets sent, vector(packetBytes)"
vector 779  Net802154MultiGateway.host[55].wrappedHost.trafficgen  sentDummyPk:vector(packetBytes)  ETV
attr interpolationmode  none
attr source  sentDummyPk
attr title  "dummy packets sent, vector(packetBytes)"
vector 793  Net802154MultiGateway.host[56].wrappedHost.trafficgen  sentDummyPk:vector(packetBytes)  ETV
attr interpolationmode  none
attr source  sentDummyPk
attr title  "dummy packets sent, vector(packetBytes)"
vector 807  Net802154MultiGateway.host[57].wrappedHost.trafficgen  sentDummyPk:vector(packetBytes)  ETV
attr interpolationmode  none
attr source  sentDummyPk
attr title  "dummy packets sent, vector(packetBytes)"
vector 821  Net802154MultiGateway.host[58].wrappedHost.trafficgen  sentDummyPk:vector(packetBytes)  ETV
attr interpolationmode  none
attr source  sentDummyPk
attr title  "dummy packets sent, vector(packetBytes)"
vector 835  Net802154MultiGateway.host[59].wrappedHost.trafficgen  sentDummyPk:vector(packetBytes)  ETV
attr interpolationmode  none
attr source  sentDummyPk
attr title  "dummy packets sent, vector(packetBytes)"
vector 849  Net802154MultiGateway.host[60].wrappedHost.trafficgen  sentDummyPk:vector(packetBytes)  ETV
attr interpolationmode  none
attr source  sentDummyPk
attr title  "dummy packets sent, vector(packetBytes)"
vector 863  Net802154MultiGateway.host[61].wrappedHost.trafficgen  sentDummyPk:vector(packetBytes)  ETV
attr interpolationmode  none
attr source  sentDummyPk
attr title  "dummy packets sent, vector(packetBytes)"
vector 104  Net802154MultiGateway.host[7].wrappedHost.trafficgen  sentPk:vector(packetBytes)  ETV
attr interpolationmode  none
attr source  sentPk
attr title  "packets sent, vector(packetBytes)"
vector 108  Net802154MultiGateway.host[7].wrappedHost.trafficgen  PRR:vector  ETV
attr interpolationmode  none
attr source  count(sinkRcvdPk)/count(sentPk)
attr title  "PRR, vector"
vector 106  Net802154MultiGateway.host[7].wrappedHost.trafficgen  sinkRcvdPk:vector(packetBytes)  ETV
attr interpolationmode  none
attr source  sinkRcvdPk
attr title  "own packets received by sink, vector(packetBytes)"
vector 5  Net802154MultiGateway.host[0].wrappedHost.trafficgen  rcvdPk:vector(packetBytes)  ETV
attr interpolationmode  none
attr source  rcvdPk
attr title  "packets received, vector(packetBytes)"
vector 7  Net802154MultiGateway.host[0].wrappedHost.trafficgen  endToEndDelay:vector  ETV
attr interpolationmode  none
attr source  messageAge(rcvdPk)
attr title  "end-to-end delay, vector"
attr unit  s
vector 160  Net802154MultiGateway.host[11].wrappedHost.trafficgen  sentPk:vector(packetBytes)  ETV
attr interpolationmode  none
attr source  sentPk
attr title  "packets sent, vector(packetBytes)"
vector 164  Net802154MultiGateway.host[11].wrappedHost.trafficgen  PRR:vector  ETV
attr interpolationmode  none
attr source  count(sinkRcvdPk)/count(sentPk)
attr title  "PRR, vector"
vector 162  Net802154MultiGateway.host[11].wrappedHost.trafficgen  sinkRcvdPk:vector(packetBytes)  ETV
attr interpolationmode  none
attr source  sinkRcvdPk
attr title  "own packets received by sink, vector(packetBytes)"
vector 48  Net802154MultiGateway.host[3].wrappedHost.trafficgen  sentPk:vector(packetBytes)  ETV
attr interpolationmode  none
attr source  sentPk
attr title  "packets sent, vector(packetBytes)"
vector 52  Net802154MultiGateway.host[3].wrappedHost.trafficgen  PRR:vector  ETV
attr interpolationmode  none
attr source  count(sinkRcvdPk)/count(sentPk)
attr title  "PRR, vector"
vector 370  Net802154MultiGateway.host[26].wrappedHost.trafficgen  sentPk:vector(packetBytes)  ETV
attr interpolationmode  none
attr source  sentPk
attr title  "packets sent, vector(packetBytes)"
vector 374  Net802154MultiGateway.host[26].wrappedHost.trafficgen  PRR:vector  ETV
attr interpolationmode  none
attr source  count(sinkRcvdPk)/count(sentPk)
attr title  "PRR, vector"
vector 50  Net802154MultiGateway.host[3].wrappedHost.trafficgen  sinkRcvdPk:vector(packetBytes)  ETV
attr interpolationmode  none
attr source  sinkRcvdPk
attr title  "own packets received by sink, vector(packetBytes)"
vector 372  Net802154MultiGateway.host[26].wrappedHost.trafficgen  sinkRcvdPk:vector(packetBytes)  ETV
attr interpolationmode  none
attr source  sinkRcvdPk
attr title  "own packets received by sink, vector(packetBytes)"
vector 692  Net802154MultiGateway.host[49].wrappedHost.trafficgen  sentPk:vector(packetBytes)  ETV
attr interpolationmode  none
attr source  sentPk
attr title  "packets sent, vector(packetBytes)"
vector 696  Net802154MultiGateway.host[49].wrappedHost.trafficgen  PRR:vector  ETV
attr interpolationmode  none
attr source  count(sinkRcvdPk)/count(sentPk)
attr title  "PRR, vector"
vector 384  Net802154MultiGateway.host[27].wrappedHost.trafficgen  sentPk:vector(packetBytes)  ETV
attr interpolationmode  none
attr source  sentPk
attr title  "packets sent, vector(packetBytes)"
vector 388  Net802154MultiGateway.host[27].wrappedHost.trafficgen  PRR:vector  ETV
attr interpolationmode  none
attr source  count(sinkRcvdPk)/count(sentPk)
attr title  "PRR, vector"
vector 694  Net802154MultiGateway.host[49].wrappedHost.trafficgen  sinkRcvdPk:vector(packetBytes)  ETV
attr interpolationmode  none
attr source  sinkRcvdPk
attr title  "own packets received by sink, vector(packetBytes)"
vector 386  Net802154MultiGateway.host[27].wrappedHost.trafficgen  sinkRcvdPk:vector(packetBytes)  ETV
attr interpolationmode  none
attr source  sinkRcvdPk
attr title  "own packets received by sink, vector(packetBytes)"
vector 538  Net802154MultiGateway.host[38].wrappedHost.trafficgen  sentPk:vector(packetBytes)  ETV
attr interpolationmode  none
attr source  sentPk
attr title  "packets sent, vector(packetBytes)"
vector 542  Net802154MultiGateway.host[38].wrappedHost.trafficgen  PRR:vector  ETV
attr interpolationmode  none
attr source  count(sinkRcvdPk)/count(sentPk)
attr title  "PRR, vector"
vector 664  Net802154MultiGateway.host[47].wrappedHost.trafficgen  sentPk:vector(packetBytes)  ETV
attr interpolationmode  none
attr source  sentPk
attr title  "packets sent, vector(packetBytes)"
vector 668  Net802154MultiGateway.host[47].wrappedHost.trafficgen  PRR:vector  ETV
attr interpolationmode  none
attr source  count(sinkRcvdPk)/count(sentPk)
attr title  "PRR, vector"
vector 540  Net802154MultiGateway.host[38].wrappedHost.trafficgen  sinkRcvdPk:vector(packetBytes)  ETV
attr interpolationmode  none
attr source  sinkRcvdPk
attr title  "own packets received by sink, vector(packetBytes)"
vector 804  Net802154MultiGateway.host[57].wrappedHost.trafficgen  sentPk:vector(packetBytes)  ETV
attr interpolationmode  none
attr source  sentPk
attr title  "packets sent, vector(packetBytes)"
vector 808  Net802154MultiGateway.host[57].wrappedHost.trafficgen  PRR:vector  ETV
attr interpolationmode  none
attr source  count(sinkRcvdPk)/count(sentPk)
attr title  "PRR, vector"
vector 666  Net802154MultiGateway.host[47].wrappedHost.trafficgen  sinkRcvdPk:vector(packetBytes)  ETV
attr interpolationmode  none
attr source  sinkRcvdPk
attr title  "own packets received by sink, vector(packetBytes)"
vector 806  Net802154MultiGateway.host[57].wrappedHost.trafficgen  sinkRcvdPk:vector(packetBytes)  ETV
attr interpolationmode  none
attr source  sinkRcvdPk
attr title  "own packets received by sink, vector(packetBytes)"
vector 790  Net802154MultiGateway.host[56].wrappedHost.trafficgen  sentPk:vector(packetBytes)  ETV
attr interpolationmode  none
attr source  sentPk
attr title  "packets sent, vector(packetBytes)"
vector 794  Net802154MultiGateway.host[56].wrappedHost.trafficgen  PRR:vector  ETV
attr interpolationmode  none
attr source  count(sinkRcvdPk)/count(sentPk)
attr title  "PRR, vector"
vector 792  Net802154MultiGateway.host[56].wrappedHost.trafficgen  sinkRcvdPk:vector(packetBytes)  ETV
attr interpolationmode  none
attr source  sinkRcvdPk
attr title  "own packets received by sink, vector(packetBytes)"
vector 328  Net802154MultiGateway.host[23].wrappedHost.trafficgen  sentPk:vector(packetBytes)  ETV
attr interpolationmode  none
attr source  sentPk
attr title  "packets sent, vector(packetBytes)"
vector 332  Net802154MultiGateway.host[23].wrappedHost.trafficgen  PRR:vector  ETV
attr interpolationmode  none
attr source  count(sinkRcvdPk)/count(sentPk)
attr title  "PRR, vector"
vector 330  Net802154MultiGateway.host[23].wrappedHost.trafficgen  sinkRcvdPk:vector(packetBytes)  ETV
attr interpolationmode  none
attr source  sinkRcvdPk
attr title  "own packets received by sink, vector(packetBytes)"
vector 174  Net802154MultiGateway.host[12].wrappedHost.trafficgen  sentPk:vector(packetBytes)  ETV
attr interpolationmode  none
attr source  sentPk
attr title  "packets sent, vector(packetBytes)"
vector 178  Net802154MultiGateway.host[12].wrappedHost.trafficgen  PRR:vector  ETV
attr interpolationmode  none
attr source  count(sinkRcvdPk)/count(sentPk)
attr title  "PRR, vector"
vector 176  Net802154MultiGateway.host[12].wrappedHost.trafficgen  sinkRcvdPk:vector(packetBytes)  ETV
attr interpolationmode  none
attr source  sinkRcvdPk
attr title  "own packets received by sink, vector(packetBytes)"
vector 426  Net802154MultiGateway.host[30].wrappedHost.trafficgen  sentPk:vector(packetBytes)  ETV
attr interpolationmode  none
attr source  sentPk
attr title  "packets sent, vector(packetBytes)"
vector 430  Net802154MultiGateway.host[30].wrappedHost.trafficgen  PRR:vector  ETV
attr interpolationmode  none
attr source  count(sinkRcvdPk)/count(sentPk)
attr title  "PRR, vector"
vector 428  Net802154MultiGateway.host[30].wrappedHost.trafficgen  sinkRcvdPk:vector(packetBytes)  ETV
attr interpolationmode  none
attr source  sinkRcvdPk
attr title  "own packets received by sink, vector(packetBytes)"
vector 524  Net802154MultiGateway.host[37].wrappedHost.trafficgen  sentPk:vector(packetBytes)  ETV
attr interpolationmode  none
attr source  sentPk
attr title  "packets sent, vector(packetBytes)"
vector 528  Net802154MultiGateway.host[37].wrappedHost.trafficgen  PRR:vector  ETV
attr interpolationmode  none
attr source  count(sinkRcvdPk)/count(sentPk)
attr title  "PRR, vector"
vector 34  Net802154MultiGateway.host[2].wrappedHost.trafficgen  sentPk:vector(packetBytes)  ETV
attr interpolationmode  none
attr source  sentPk
attr title  "packets sent, vector(packetBytes)"
vector 38  Net802154MultiGateway.host[2].wrappedHost.trafficgen  PRR:vector  ETV
attr interpolationmode  none
attr source  count(sinkRcvdPk)/count(sentPk)
attr title  "PRR, vector"
vector 36  Net802154MultiGateway.host[2].wrappedHost.trafficgen  sinkRcvdPk:vector(packetBytes)  ETV
attr interpolationmode  none
attr source  sinkRcvdPk
attr title  "own packets received by sink, vector(packetBytes)"
vector 526  Net802154MultiGateway.host[37].wrappedHost.trafficgen  sinkRcvdPk:vector(packetBytes)  ETV
attr interpolationmode  none
attr source  sinkRcvdPk
attr title  "own packets received by sink, vector(packetBytes)"
vector 118  Net802154MultiGateway.host[8].wrappedHost.trafficgen  sentPk:vector(packetBytes)  ETV
attr interpolationmode  none
attr source  sentPk
attr title  "packets sent, vector(packetBytes)"
vector 122  Net802154MultiGateway.host[8].wrappedHost.trafficgen  PRR:vector  ETV
attr interpolationmode  none
attr source  count(sinkRcvdPk)/count(sentPk)
attr title  "PRR, vector"
vector 776  Net802154MultiGateway.host[55].wrappedHost.trafficgen  sentPk:vector(packetBytes)  ETV
attr interpolationmode  none
attr source  sentPk
attr title  "packets sent, vector(packetBytes)"
vector 780  Net802154MultiGateway.host[55].wrappedHost.trafficgen  PRR:vector  ETV
attr interpolationmode  none
attr source  count(sinkRcvdPk)/count(sentPk)
attr title  "PRR, vector"
vector 120  Net802154MultiGateway.host[8].wrappedHost.trafficgen  sinkRcvdPk:vector(packetBytes)  ETV
attr interpolationmode  none
attr source  sinkRcvdPk
attr title  "own packets received by sink, vector(packetBytes)"
vector 778  Net802154MultiGateway.host[55].wrappedHost.trafficgen  sinkRcvdPk:vector(packetBytes)  ETV
attr interpolationmode  none
attr source  sinkRcvdPk
attr title  "own packets received by sink, vector(packetBytes)"
vector 832  Net802154MultiGateway.host[59].wrappedHost.trafficgen  sentPk:vector(packetBytes)  ETV
attr interpolationmode  none
attr source  sentPk
attr title  "packets sent, vector(packetBytes)"
vector 836  Net802154MultiGateway.host[59].wrappedHost.trafficgen  PRR:vector  ETV
attr interpolationmode  none
attr source  count(sinkRcvdPk)/count(sentPk)
attr title  "PRR, vector"
vector 650  Net802154MultiGateway.host[46].wrappedHost.trafficgen  sentPk:vector(packetBytes)  ETV
attr interpolationmode  none
attr source  sentPk
attr title  "packets sent, vector(packetBytes)"
vector 654  Net802154MultiGateway.host[46].wrappedHost.trafficgen  PRR:vector  ETV
attr interpolationmode  none
attr source  count(sinkRcvdPk)/count(sentPk)
attr title  "PRR, vector"
vector 834  Net802154MultiGateway.host[59].wrappedHost.trafficgen  sinkRcvdPk:vector(packetBytes)  ETV
attr interpolationmode  none
attr source  sinkRcvdPk
attr title  "own packets received by sink, vector(packetBytes)"
vector 652  Net802154MultiGateway.host[46].wrappedHost.trafficgen  sinkRcvdPk:vector(packetBytes)  ETV
attr interpolationmode  none
attr source  sinkRcvdPk
attr title  "own packets received by sink, vector(packetBytes)"
vector 412  Net802154MultiGateway.host[29].wrappedHost.trafficgen  sentPk:vector(packetBytes)  ETV
attr interpolationmode  none
attr source  sentPk
attr title  "packets sent, vector(packetBytes)"
vector 416  Net802154MultiGateway.host[29].wrappedHost.trafficgen  PRR:vector  ETV
attr interpolationmode  none
attr source  count(sinkRcvdPk)/count(sentPk)
attr title  "PRR, vector"
vector 414  Net802154MultiGateway.host[29].wrappedHost.trafficgen  sinkRcvdPk:vector(packetBytes)  ETV
attr interpolationmode  none
attr source  sinkRcvdPk
attr title  "own packets received by sink, vector(packetBytes)"
vector 146  Net802154MultiGateway.host[10].wrappedHost.trafficgen  sentPk:vector(packetBytes)  ETV
attr interpolationmode  none
attr source  sentPk
attr title  "packets sent, vector(packetBytes)"
vector 150  Net802154MultiGateway.host[10].wrappedHost.trafficgen  PRR:vector  ETV
attr interpolationmode  none
attr source  count(sinkRcvdPk)/count(sentPk)
attr title  "PRR, vector"
vector 148  Net802154MultiGateway.host[10].wrappedHost.trafficgen  sinkRcvdPk:vector(packetBytes)  ETV
attr interpolationmode  none
attr source  sinkRcvdPk
attr title  "own packets received by sink, vector(packetBytes)"
vector 188  Net802154MultiGateway.host[13].wrappedHost.trafficgen  sentPk:vector(packetBytes)  ETV
attr interpolationmode  none
attr source  sentPk
attr title  "packets sent, vector(packetBytes)"
vector 192  Net802154MultiGateway.host[13].wrappedHost.trafficgen  PRR:vector  ETV
attr interpolationmode  none
attr source  count(sinkRcvdPk)/count(sentPk)
attr title  "PRR, vector"
vector 190  Net802154MultiGateway.host[13].wrappedHost.trafficgen  sinkRcvdPk:vector(packetBytes)  ETV
attr interpolationmode  none
attr source  sinkRcvdPk
attr title  "own packets received by sink, vector(packetBytes)"
vector 678  Net802154MultiGateway.host[48].wrappedHost.trafficgen  sentPk:vector(packetBytes)  ETV
attr interpolationmode  none
attr source  sentPk
attr title  "packets sent, vector(packetBytes)"
vector 682  Net802154MultiGateway.host[48].wrappedHost.trafficgen  PRR:vector  ETV
attr interpolationmode  none
attr source  count(sinkRcvdPk)/count(sentPk)
attr title  "PRR, vector"
vector 748  Net802154MultiGateway.host[53].wrappedHost.trafficgen  sentPk:vector(packetBytes)  ETV
attr interpolationmode  none
attr source  sentPk
attr title  "packets sent, vector(packetBytes)"
vector 752  Net802154MultiGateway.host[53].wrappedHost.trafficgen  PRR:vector  ETV
attr interpolationmode  none
attr source  count(sinkRcvdPk)/count(sentPk)
attr title  "PRR, vector"
vector 680  Net802154MultiGateway.host[48].wrappedHost.trafficgen  sinkRcvdPk:vector(packetBytes)  ETV
attr interpolationmode  none
attr source  sinkRcvdPk
attr title  "own packets received by sink, vector(packetBytes)"
vector 750  Net802154MultiGateway.host[53].wrappedHost.trafficgen  sinkRcvdPk:vector(packetBytes)  ETV
attr interpolationmode  none
attr source  sinkRcvdPk
attr title  "own packets received by sink, vector(packetBytes)"
vector 706  Net802154MultiGateway.host[50].wrappedHost.trafficgen  sentPk:vector(packetBytes)  ETV
attr interpolationmode  none
attr source  sentPk
attr title  "packets sent, vector(packetBytes)"
vector 710  Net802154MultiGateway.host[50].wrappedHost.trafficgen  PRR:vector  ETV
attr interpolationmode  none
attr source  count(sinkRcvdPk)/count(sentPk)
attr title  "PRR, vector"
vector 552  Net802154MultiGateway.host[39].wrappedHost.trafficgen  sentPk:vector(packetBytes)  ETV
attr interpolationmode  none
attr source  sentPk
attr title  "packets sent, vector(packetBytes)"
vector 556  Net802154MultiGateway.host[39].wrappedHost.trafficgen  PRR:vector  ETV
attr interpolationmode  none
attr source  count(sinkRcvdPk)/count(sentPk)
attr title  "PRR, vector"
vector 708  Net802154MultiGateway.host[50].wrappedHost.trafficgen  sinkRcvdPk:vector(packetBytes)  ETV
attr interpolationmode  none
attr source  sinkRcvdPk
attr title  "own packets received by sink, vector(packetBytes)"
vector 554  Net802154MultiGateway.host[39].wrappedHost.trafficgen  sinkRcvdPk:vector(packetBytes)  ETV
attr interpolationmode  none
attr source  sinkRcvdPk
attr title  "own packets received by sink, vector(packetBytes)"
vector 454  Net802154MultiGateway.host[32].wrappedHost.trafficgen  sentPk:vector(packetBytes)  ETV
attr interpolationmode  none
attr source  sentPk
attr title  "packets sent, vector(packetBytes)"
vector 458  Net802154MultiGateway.host[32].wrappedHost.trafficgen  PRR:vector  ETV
attr interpolationmode  none
attr source  count(sinkRcvdPk)/count(sentPk)
attr title  "PRR, vector"
vector 456  Net802154MultiGateway.host[32].wrappedHost.trafficgen  sinkRcvdPk:vector(packetBytes)  ETV
attr interpolationmode  none
attr source  sinkRcvdPk
attr title  "own packets received by sink, vector(packetBytes)"
vector 244  Net802154MultiGateway.host[17].wrappedHost.trafficgen  sentPk:vector(packetBytes)  ETV
attr interpolationmode  none
attr source  sentPk
attr title  "packets sent, vector(packetBytes)"
vector 248  Net802154MultiGateway.host[17].wrappedHost.trafficgen  PRR:vector  ETV
attr interpolationmode  none
attr source  count(sinkRcvdPk)/count(sentPk)
attr title  "PRR, vector"
vector 246  Net802154MultiGateway.host[17].wrappedHost.trafficgen  sinkRcvdPk:vector(packetBytes)  ETV
attr interpolationmode  none
attr source  sinkRcvdPk
attr title  "own packets received by sink, vector(packetBytes)"
vector 314  Net802154MultiGateway.host[22].wrappedHost.trafficgen  sentPk:vector(packetBytes)  ETV
attr interpolationmode  none
attr source  sentPk
attr title  "packets sent, vector(packetBytes)"
vector 318  Net802154MultiGateway.host[22].wrappedHost.trafficgen  PRR:vector  ETV
attr interpolationmode  none
attr source  count(sinkRcvdPk)/count(sentPk)
attr title  "PRR, vector"
vector 580  Net802154MultiGateway.host[41].wrappedHost.trafficgen  sentPk:vector(packetBytes)  ETV
attr interpolationmode  none
attr source  sentPk
attr title  "packets sent, vector(packetBytes)"
vector 584  Net802154MultiGateway.host[41].wrappedHost.trafficgen  PRR:vector  ETV
attr interpolationmode  none
attr source  count(sinkRcvdPk)/count(sentPk)
attr title  "PRR, vector"
vector 316  Net802154MultiGateway.host[22].wrappedHost.trafficgen  sinkRcvdPk:vector(packetBytes)  ETV
attr interpolationmode  none
attr source  sinkRcvdPk
attr title  "own packets received by sink, vector(packetBytes)"
vector 582  Net802154MultiGateway.host[41].wrappedHost.trafficgen  sinkRcvdPk:vector(packetBytes)  ETV
attr interpolationmode  none
attr source  sinkRcvdPk
attr title  "own packets received by sink, vector(packetBytes)"
vector 90  Net802154MultiGateway.host[6].wrappedHost.trafficgen  sentPk:vector(packetBytes)  ETV
attr interpolationmode  none
attr source  sentPk
attr title  "packets sent, vector(packetBytes)"
vector 94  Net802154MultiGateway.host[6].wrappedHost.trafficgen  PRR:vector  ETV
attr interpolationmode  none
attr source  count(sinkRcvdPk)/count(sentPk)
attr title  "PRR, vector"
vector 92  Net802154MultiGateway.host[6].wrappedHost.trafficgen  sinkRcvdPk:vector(packetBytes)  ETV
attr interpolationmode  none
attr source  sinkRcvdPk
attr title  "own packets received by sink, vector(packetBytes)"
vector 762  Net802154MultiGateway.host[54].wrappedHost.trafficgen  sentPk:vector(packetBytes)  ETV
attr interpolationmode  none
attr source  sentPk
attr title  "packets sent, vector(packetBytes)"
vector 766  Net802154MultiGateway.host[54].wrappedHost.trafficgen  PRR:vector  ETV
attr interpolationmode  none
attr source  count(sinkRcvdPk)/count(sentPk)
attr title  "PRR, vector"
vector 594  Net802154MultiGateway.host[42].wrappedHost.trafficgen  sentPk:vector(packetBytes)  ETV
attr interpolationmode  none
attr source  sentPk
attr title  "packets sent, vector(packetBytes)"
vector 598  Net802154MultiGateway.host[42].wrappedHost.trafficgen  PRR:vector  ETV
attr interpolationmode  none
attr source  count(sinkRcvdPk)/count(sentPk)
attr title  "PRR, vector"
vector 764  Net802154MultiGateway.host[54].wrappedHost.trafficgen  sinkRcvdPk:vector(packetBytes)  ETV
attr interpolationmode  none
attr source  sinkRcvdPk
attr title  "own packets received by sink, vector(packetBytes)"
vector 596  Net802154MultiGateway.host[42].wrappedHost.trafficgen  sinkRcvdPk:vector(packetBytes)  ETV
attr interpolationmode  none
attr source  sinkRcvdPk
attr title  "own packets received by sink, vector(packetBytes)"
vector 272  Net802154MultiGateway.host[19].wrappedHost.trafficgen  sentPk:vector(packetBytes)  ETV
attr interpolationmode  none
attr source  sentPk
attr title  "packets sent, vector(packetBytes)"
vector 276  Net802154MultiGateway.host[19].wrappedHost.trafficgen  PRR:vector  ETV
attr interpolationmode  none
attr source  count(sinkRcvdPk)/count(sentPk)
attr title  "PRR, vector"
vector 274  Net802154MultiGateway.host[19].wrappedHost.trafficgen  sinkRcvdPk:vector(packetBytes)  ETV
attr interpolationmode  none
attr source  sinkRcvdPk
attr title  "own packets received by sink, vector(packetBytes)"
vector 468  Net802154MultiGateway.host[33].wrappedHost.trafficgen  sentPk:vector(packetBytes)  ETV
attr interpolationmode  none
attr source  sentPk
attr title  "packets sent, vector(packetBytes)"
vector 472  Net802154MultiGateway.host[33].wrappedHost.trafficgen  PRR:vector  ETV
attr interpolationmode  none
attr source  count(sinkRcvdPk)/count(sentPk)
attr title  "PRR, vector"
vector 470  Net802154MultiGateway.host[33].wrappedHost.trafficgen  sinkRcvdPk:vector(packetBytes)  ETV
attr interpolationmode  none
attr source  sinkRcvdPk
attr title  "own packets received by sink, vector(packetBytes)"
vector 566  Net802154MultiGateway.host[40].wrappedHost.trafficgen  sentPk:vector(packetBytes)  ETV
attr interpolationmode  none
attr source  sentPk
attr title  "packets sent, vector(packetBytes)"
vector 570  Net802154MultiGateway.host[40].wrappedHost.trafficgen  PRR:vector  ETV
attr interpolationmode  none
attr source  count(sinkRcvdPk)/count(sentPk)
attr title  "PRR, vector"
vector 568  Net802154MultiGateway.host[40].wrappedHost.trafficgen  sinkRcvdPk:vector(packetBytes)  ETV
attr interpolationmode  none
attr source  sinkRcvdPk
attr title  "own packets received by sink, vector(packetBytes)"
vector 76  Net802154MultiGateway.host[5].wrappedHost.trafficgen  sentPk:vector(packetBytes)  ETV
attr interpolationmode  none
attr source  sentPk
attr title  "packets sent, vector(packetBytes)"
vector 80  Net802154MultiGateway.host[5].wrappedHost.trafficgen  PRR:vector  ETV
attr interpolationmode  none
attr source  count(sinkRcvdPk)/count(sentPk)
attr title  "PRR, vector"
vector 78  Net802154MultiGateway.host[5].wrappedHost.trafficgen  sinkRcvdPk:vector(packetBytes)  ETV
attr interpolationmode  none
attr source  sinkRcvdPk
attr title  "own packets received by sink, vector(packetBytes)"
vector 20  Net802154MultiGateway.host[1].wrappedHost.trafficgen  sentPk:vector(packetBytes)  ETV
attr interpolationmode  none
attr source  sentPk
attr title  "packets sent, vector(packetBytes)"
vector 24  Net802154MultiGateway.host[1].wrappedHost.trafficgen  PRR:vector  ETV
attr interpolationmode  none
attr source  count(sinkRcvdPk)/count(sentPk)
attr title  "PRR, vector"
vector 22  Net802154MultiGateway.host[1].wrappedHost.trafficgen  sinkRcvdPk:vector(packetBytes)  ETV
attr interpolationmode  none
attr source  sinkRcvdPk
attr title  "own packets received by sink, vector(packetBytes)"
vector 510  Net802154MultiGateway.host[36].wrappedHost.trafficgen  sentPk:vector(packetBytes)  ETV
attr interpolationmode  none
attr source  sentPk
attr title  "packets sent, vector(packetBytes)"
vector 514  Net802154MultiGateway.host[36].wrappedHost.trafficgen  PRR:vector  ETV
attr interpolationmode  none
attr source  count(sinkRcvdPk)/count(sentPk)
attr title  "PRR, vector"
vector 512  Net802154MultiGateway.host[36].wrappedHost.trafficgen  sinkRcvdPk:vector(packetBytes)  ETV
attr interpolationmode  none
attr source  sinkRcvdPk
attr title  "own packets received by sink, vector(packetBytes)"
vector 482  Net802154MultiGateway.host[34].wrappedHost.trafficgen  sentPk:vector(packetBytes)  ETV
attr interpolationmode  none
attr source  sentPk
attr title  "packets sent, vector(packetBytes)"
vector 486  Net802154MultiGateway.host[34].wrappedHost.trafficgen  PRR:vector  ETV
attr interpolationmode  none
attr source  count(sinkRcvdPk)/count(sentPk)
attr title  "PRR, vector"
vector 202  Net802154MultiGateway.host[14].wrappedHost.trafficgen  sentPk:vector(packetBytes)  ETV
attr interpolationmode  none
attr source  sentPk
attr title  "packets sent, vector(packetBytes)"
vector 206  Net802154MultiGateway.host[14].wrappedHost.trafficgen  PRR:vector  ETV
attr interpolationmode  none
attr source  count(sinkRcvdPk)/count(sentPk)
attr title  "PRR, vector"
vector 484  Net802154MultiGateway.host[34].wrappedHost.trafficgen  sinkRcvdPk:vector(packetBytes)  ETV
attr interpolationmode  none
attr source  sinkRcvdPk
attr title  "own packets received by sink, vector(packetBytes)"
vector 204  Net802154MultiGateway.host[14].wrappedHost.trafficgen  sinkRcvdPk:vector(packetBytes)  ETV
attr interpolationmode  none
attr source  sinkRcvdPk
attr title  "own packets received by sink, vector(packetBytes)"
vector 860  Net802154MultiGateway.host[61].wrappedHost.trafficgen  sentPk:vector(packetBytes)  ETV
attr interpolationmode  none
attr source  sentPk
attr title  "packets sent, vector(packetBytes)"
vector 864  Net802154MultiGateway.host[61].wrappedHost.trafficgen  PRR:vector  ETV
attr interpolationmode  none
attr source  count(sinkRcvdPk)/count(sentPk)
attr title  "PRR, vector"
vector 818  Net802154MultiGateway.host[58].wrappedHost.trafficgen  sentPk:vector(packetBytes)  ETV
attr interpolationmode  none
attr source  sentPk
attr title  "packets sent, vector(packetBytes)"
vector 822  Net802154MultiGateway.host[58].wrappedHost.trafficgen  PRR:vector  ETV
attr interpolationmode  none
attr source  count(sinkRcvdPk)/count(sentPk)
attr title  "PRR, vector"
vector 862  Net802154MultiGateway.host[61].wrappedHost.trafficgen  sinkRcvdPk:vector(packetBytes)  ETV
attr interpolationmode  none
attr source  sinkRcvdPk
attr title  "own packets received by sink, vector(packetBytes)"
vector 820  Net802154MultiGateway.host[58].wrappedHost.trafficgen  sinkRcvdPk:vector(packetBytes)  ETV
attr interpolationmode  none
attr source  sinkRcvdPk
attr title  "own packets received by sink, vector(packetBytes)"
vector 132  Net802154MultiGateway.host[9].wrappedHost.trafficgen  sentPk:vector(packetBytes)  ETV
attr interpolationmode  none
attr source  sentPk
attr title  "packets sent, vector(packetBytes)"
vector 136  Net802154MultiGateway.host[9].wrappedHost.trafficgen  PRR:vector  ETV
attr interpolationmode  none
attr source  count(sinkRcvdPk)/count(sentPk)
attr title  "PRR, vector"
vector 608  Net802154MultiGateway.host[43].wrappedHost.trafficgen  sentPk:vector(packetBytes)  ETV
attr interpolationmode  none
attr source  sentPk
attr title  "packets sent, vector(packetBytes)"
vector 612  Net802154MultiGateway.host[43].wrappedHost.trafficgen  PRR:vector  ETV
attr interpolationmode  none
attr source  count(sinkRcvdPk)/count(sentPk)
attr title  "PRR, vector"
vector 610  Net802154MultiGateway.host[43].wrappedHost.trafficgen  sinkRcvdPk:vector(packetBytes)  ETV
attr interpolationmode  none
attr source  sinkRcvdPk
attr title  "own packets received by sink, vector(packetBytes)"
vector 300  Net802154MultiGateway.host[21].wrappedHost.trafficgen  sentPk:vector(packetBytes)  ETV
attr interpolationmode  none
attr source  sentPk
attr title  "packets sent, vector(packetBytes)"
vector 304  Net802154MultiGateway.host[21].wrappedHost.trafficgen  PRR:vector  ETV
attr interpolationmode  none
attr source  count(sinkRcvdPk)/count(sentPk)
attr title  "PRR, vector"
vector 302  Net802154MultiGateway.host[21].wrappedHost.trafficgen  sinkRcvdPk:vector(packetBytes)  ETV
attr interpolationmode  none
attr source  sinkRcvdPk
attr title  "own packets received by sink, vector(packetBytes)"
vector 134  Net802154MultiGateway.host[9].wrappedHost.trafficgen  sinkRcvdPk:vector(packetBytes)  ETV
attr interpolationmode  none
attr source  sinkRcvdPk
attr title  "own packets received by sink, vector(packetBytes)"
vector 230  Net802154MultiGateway.host[16].wrappedHost.trafficgen  sentPk:vector(packetBytes)  ETV
attr interpolationmode  none
attr source  sentPk
attr title  "packets sent, vector(packetBytes)"
vector 234  Net802154MultiGateway.host[16].wrappedHost.trafficgen  PRR:vector  ETV
attr interpolationmode  none
attr source  count(sinkRcvdPk)/count(sentPk)
attr title  "PRR, vector"
vector 622  Net802154MultiGateway.host[44].wrappedHost.trafficgen  sentPk:vector(packetBytes)  ETV
attr interpolationmode  none
attr source  sentPk
attr title  "packets sent, vector(packetBytes)"
vector 626  Net802154MultiGateway.host[44].wrappedHost.trafficgen  PRR:vector  ETV
attr interpolationmode  none
attr source  count(sinkRcvdPk)/count(sentPk)
attr title  "PRR, vector"
vector 232  Net802154MultiGateway.host[16].wrappedHost.trafficgen  sinkRcvdPk:vector(packetBytes)  ETV
attr interpolationmode  none
attr source  sinkRcvdPk
attr title  "own packets received by sink, vector(packetBytes)"
vector 624  Net802154MultiGateway.host[44].wrappedHost.trafficgen  sinkRcvdPk:vector(packetBytes)  ETV
attr interpolationmode  none
attr source  sinkRcvdPk
attr title  "own packets received by sink, vector(packetBytes)"
vector 846  Net802154MultiGateway.host[60].wrappedHost.trafficgen  sentPk:vector(packetBytes)  ETV
attr interpolationmode  none
attr source  sentPk
attr title  "packets sent, vector(packetBytes)"
vector 850  Net802154MultiGateway.host[60].wrappedHost.trafficgen  PRR:vector  ETV
attr interpolationmode  none
attr source  count(sinkRcvdPk)/count(sentPk)
attr title  "PRR, vector"
vector 848  Net802154MultiGateway.host[60].wrappedHost.trafficgen  sinkRcvdPk:vector(packetBytes)  ETV
attr interpolationmode  none
attr source  sinkRcvdPk
attr title  "own packets received by sink, vector(packetBytes)"
vector 636  Net802154MultiGateway.host[45].wrappedHost.trafficgen  sentPk:vector(packetBytes)  ETV
attr interpolationmode  none
attr source  sentPk
attr title  "packets sent, vector(packetBytes)"
vector 640  Net802154MultiGateway.host[45].wrappedHost.trafficgen  PRR:vector  ETV
attr interpolationmode  none
attr source  count(sinkRcvdPk)/count(sentPk)
attr title  "PRR, vector"
vector 638  Net802154MultiGateway.host[45].wrappedHost.trafficgen  sinkRcvdPk:vector(packetBytes)  ETV
attr interpolationmode  none
attr source  sinkRcvdPk
attr title  "own packets received by sink, vector(packetBytes)"
vector 720  Net802154MultiGateway.host[51].wrappedHost.trafficgen  sentPk:vector(packetBytes)  ETV
attr interpolationmode  none
attr source  sentPk
attr title  "packets sent, vector(packetBytes)"
vector 724  Net802154MultiGateway.host[51].wrappedHost.trafficgen  PRR:vector  ETV
attr interpolationmode  none
attr source  count(sinkRcvdPk)/count(sentPk)
attr title  "PRR, vector"
vector 722  Net802154MultiGateway.host[51].wrappedHost.trafficgen  sinkRcvdPk:vector(packetBytes)  ETV
attr interpolationmode  none
attr source  sinkRcvdPk
attr title  "own packets received by sink, vector(packetBytes)"
vector 342  Net802154MultiGateway.host[24].wrappedHost.trafficgen  sentPk:vector(packetBytes)  ETV
attr interpolationmode  none
attr source  sentPk
attr title  "packets sent, vector(packetBytes)"
vector 346  Net802154MultiGateway.host[24].wrappedHost.trafficgen  PRR:vector  ETV
attr interpolationmode  none
attr source  count(sinkRcvdPk)/count(sentPk)
attr title  "PRR, vector"
vector 344  Net802154MultiGateway.host[24].wrappedHost.trafficgen  sinkRcvdPk:vector(packetBytes)  ETV
attr interpolationmode  none
attr source  sinkRcvdPk
attr title  "own packets received by sink, vector(packetBytes)"
vector 258  Net802154MultiGateway.host[18].wrappedHost.trafficgen  sentPk:vector(packetBytes)  ETV
attr interpolationmode  none
attr source  sentPk
attr title  "packets sent, vector(packetBytes)"
vector 262  Net802154MultiGateway.host[18].wrappedHost.trafficgen  PRR:vector  ETV
attr interpolationmode  none
attr source  count(sinkRcvdPk)/count(sentPk)
attr title  "PRR, vector"
vector 260  Net802154MultiGateway.host[18].wrappedHost.trafficgen  sinkRcvdPk:vector(packetBytes)  ETV
attr interpolationmode  none
attr source  sinkRcvdPk
attr title  "own packets received by sink, vector(packetBytes)"
vector 734  Net802154MultiGateway.host[52].wrappedHost.trafficgen  sentPk:vector(packetBytes)  ETV
attr interpolationmode  none
attr source  sentPk
attr title  "packets sent, vector(packetBytes)"
vector 738  Net802154MultiGateway.host[52].wrappedHost.trafficgen  PRR:vector  ETV
attr interpolationmode  none
attr source  count(sinkRcvdPk)/count(sentPk)
attr title  "PRR, vector"
vector 736  Net802154MultiGateway.host[52].wrappedHost.trafficgen  sinkRcvdPk:vector(packetBytes)  ETV
attr interpolationmode  none
attr source  sinkRcvdPk
attr title  "own packets received by sink, vector(packetBytes)"
vector 62  Net802154MultiGateway.host[4].wrappedHost.trafficgen  sentPk:vector(packetBytes)  ETV
attr interpolationmode  none
attr source  sentPk
attr title  "packets sent, vector(packetBytes)"
vector 66  Net802154MultiGateway.host[4].wrappedHost.trafficgen  PRR:vector  ETV
attr interpolationmode  none
attr source  count(sinkRcvdPk)/count(sentPk)
attr title  "PRR, vector"
vector 356  Net802154MultiGateway.host[25].wrappedHost.trafficgen  sentPk:vector(packetBytes)  ETV
attr interpolationmode  none
attr source  sentPk
attr title  "packets sent, vector(packetBytes)"
vector 360  Net802154MultiGateway.host[25].wrappedHost.trafficgen  PRR:vector  ETV
attr interpolationmode  none
attr source  count(sinkRcvdPk)/count(sentPk)
attr title  "PRR, vector"
vector 64  Net802154MultiGateway.host[4].wrappedHost.trafficgen  sinkRcvdPk:vector(packetBytes)  ETV
attr interpolationmode  none
attr source  sinkRcvdPk
attr title  "own packets received by sink, vector(packetBytes)"
vector 358  Net802154MultiGateway.host[25].wrappedHost.trafficgen  sinkRcvdPk:vector(packetBytes)  ETV
attr interpolationmode  none
attr source  sinkRcvdPk
attr title  "own packets received by sink, vector(packetBytes)"
vector 398  Net802154MultiGateway.host[28].wrappedHost.trafficgen  sentPk:vector(packetBytes)  ETV
attr interpolationmode  none
attr source  sentPk
attr title  "packets sent, vector(packetBytes)"
vector 402  Net802154MultiGateway.host[28].wrappedHost.trafficgen  PRR:vector  ETV
attr interpolationmode  none
attr source  count(sinkRcvdPk)/count(sentPk)
attr title  "PRR, vector"
vector 400  Net802154MultiGateway.host[28].wrappedHost.trafficgen  sinkRcvdPk:vector(packetBytes)  ETV
attr interpolationmode  none
attr source  sinkRcvdPk
attr title  "own packets received by sink, vector(packetBytes)"
vector 440  Net802154MultiGateway.host[31].wrappedHost.trafficgen  sentPk:vector(packetBytes)  ETV
attr interpolationmode  none
attr source  sentPk
attr title  "packets sent, vector(packetBytes)"
vector 444  Net802154MultiGateway.host[31].wrappedHost.trafficgen  PRR:vector  ETV
attr interpolationmode  none
attr source  count(sinkRcvdPk)/count(sentPk)
attr title  "PRR, vector"
vector 442  Net802154MultiGateway.host[31].wrappedHost.trafficgen  sinkRcvdPk:vector(packetBytes)  ETV
attr interpolationmode  none
attr source  sinkRcvdPk
attr title  "own packets received by sink, vector(packetBytes)"
vector 286  Net802154MultiGateway.host[20].wrappedHost.trafficgen  sentPk:vector(packetBytes)  ETV
attr interpolationmode  none
attr source  sentPk
attr title  "packets sent, vector(packetBytes)"
vector 290  Net802154MultiGateway.host[20].wrappedHost.trafficgen  PRR:vector  ETV
attr interpolationmode  none
attr source  count(sinkRcvdPk)/count(sentPk)
attr title  "PRR, vector"
vector 288  Net802154MultiGateway.host[20].wrappedHost.trafficgen  sinkRcvdPk:vector(packetBytes)  ETV
attr interpolationmode  none
attr source  sinkRcvdPk
attr title  "own packets received by sink, vector(packetBytes)"
vector 216  Net802154MultiGateway.host[15].wrappedHost.trafficgen  sentPk:vector(packetBytes)  ETV
attr interpolationmode  none
attr source  sentPk
attr title  "packets sent, vector(packetBytes)"
vector 220  Net802154MultiGateway.host[15].wrappedHost.trafficgen  PRR:vector  ETV
attr interpolationmode  none
attr source  count(sinkRcvdPk)/count(sentPk)
attr title  "PRR, vector"
vector 218  Net802154MultiGateway.host[15].wrappedHost.trafficgen  sinkRcvdPk:vector(packetBytes)  ETV
attr interpolationmode  none
attr source  sinkRcvdPk
attr title  "own packets received by sink, vector(packetBytes)"
vector 496  Net802154MultiGateway.host[35].wrappedHost.trafficgen  sentPk:vector(packetBytes)  ETV
attr interpolationmode  none
attr source  sentPk
attr title  "packets sent, vector(packetBytes)"
vector 500  Net802154MultiGateway.host[35].wrappedHost.trafficgen  PRR:vector  ETV
attr interpolationmode  none
attr source  count(sinkRcvdPk)/count(sentPk)
attr title  "PRR, vector"
vector 498  Net802154MultiGateway.host[35].wrappedHost.trafficgen  sinkRcvdPk:vector(packetBytes)  ETV
attr interpolationmode  none
attr source  sinkRcvdPk
attr title  "own packets received by sink, vector(packetBytes)"
5	1186868	220.014509322912	76
5	1186995	220.080859705796	76
5	1187073	220.104926082913	76
5	1187299	220.120964249115	76
5	1187557	220.152597921648	76
5	1187778	220.169936893689	76
5	1188077	220.222108658745	76
5	1188360	220.243217655721	76
5	1188533	220.257297912643	76
5	1188766	220.298930645654	76
5	1189047	220.337122241501	76
5	1189174	220.387332372686	76
5	1189361	220.419104727209	76
5	1189551	220.474748328359	76
5	1189733	220.486525258406	76
5	1189945	220.525393355385	76
5	1190083	220.53487511944	76
5	1190380	220.556772118265	76
5	1190604	220.567589572234	76
5	1190755	220.581259403996	76
5	1190939	220.670987735886	76
5	1191099	220.730940006871	76
5	1191212	220.798671459493	76
5	1191517	220.824813968145	76
5	1191595	220.831992282891	76
5	1191718	220.841574343586	76
5	1192013	220.891643663608	76
5	1192219	220.908962527197	76
5	1192410	220.969794209431	76
5	1192606	220.983742486555	76
5	1192828	221.002551322496	76
5	1193012	221.041963342436	76
5	1193241	221.09742025455	76
5	1193554	221.170129979969	76
5	1193722	221.183219358177	76
5	1193953	221.215593593875	76
5	1194148	221.274759782494	76
5	1194375	221.292334661797	76
5	1194439	221.358035520272	76
5	1194558	221.407064135269	76
5	1194764	221.473083279672	76
5	1195048	221.484804941553	76
5	1195227	221.496122428036	76
5	1195471	221.511404685132	76
5	1195758	221.526675329643	76
5	1195928	221.539024637667	76
5	1196100	221.594807481669	76
5	1196340	221.627567114807	76
5	1196690	221.663486811927	76
5	1196749	221.668351479055	76
5	1196840	221.749402128234	76
5	1197024	221.774727792697	76
5	1197260	221.812578212245	76
5	1197388	221.833185948243	76
5	1197529	221.939031671485	76
5	1197630	221.945085953236	76
5	1197694	221.957420691037	76
5	1197931	222.000971830367	76
5	1198341	222.026501552071	76
5	1198558	222.034462496856	76
5	1198768	222.049170342184	76
5	1198912	222.061883062856	76
5	1199001	222.067263405167	76
5	1199086	222.072635889638	76
5	1199512	222.120113301041	76
5	1199652	222.132214758528	76
5	1199891	222.15439937823	76
5	1200148	222.219498060952	76
5	1200306	222.253197808113	76
5	1200824	222.298911864537	76
5	1201061	222.459770966851	76
5	1201304	222.509507287008	76
5	1201428	222.520488206693	76
5	1201711	222.710375706957	76
5	1202033	222.734905400403	76
5	1202121	222.739749344892	76
5	1202502	222.827219103693	76
5	1202717	222.845833913053	76
5	1202916	222.865180282881	76
5	1203088	222.891211176216	76
5	1203152	222.924514828113	76
5	1203335	222.993833980578	76
5	1203507	223.006751624458	76
5	1203855	223.029177482556	76
5	1203998	223.042235593793	76
5	1204242	223.066561907455	76
5	1204526	223.13241473537	76
5	1204780	223.154107962006	76
5	1204966	223.175811842131	76
5	1205239	223.26892295758	76
5	1205366	223.293073093009	76
5	1205696	223.448051171207	76
5	1206120	223.611754461346	76
5	1206289	223.623395799902	76
5	1206416	223.641156473166	76
5	1206654	223.676200207649	76
5	1206975	223.703510517981	76
5	1207214	223.787224850569	76
5	1207588	223.815145081001	76
5	1207766	223.829384411291	76
5	1207890	223.844297051276	76
5	1208126	223.94692379684	76
5	1208253	223.963238327825	76
5	1208325	224.002786300559	76
5	1208998	224.034738292623	76
5	1209140	224.048979594928	76
5	1209299	224.070339827134	76
5	1209498	224.087849125176	76
5	1209737	224.104916817842	76
5	1209906	224.114749962429	76
5	1210109	224.130663506209	76
5	1210365	224.208230358259	76
5	1210672	224.306685107689	76
5	1210872	224.321413734499	76
5	1211010	224.349488432854	76
5	1211390	224.369330921828	76
5	1211616	224.381977918187	76
5	1211765	224.39659235137	76
5	1212047	224.48022426329	76
5	1212342	224.516395233155	76
5	1212511	224.529337474754	76
5	1212729	224.572413058513	76
5	1212856	224.586643688475	76
5	1213089	224.649818941092	76
5	1213335	224.701423317123	76
5	1213502	224.715793213578	76
5	1213673	224.729736934013	76
5	1213959	224.7541505989	76
5	1214221	224.766240382764	76
5	1214432	224.779496080628	76
5	1214612	224.793365993219	76
5	1214854	224.860103535856	76
5	1214988	224.882124180582	76
5	1215060	224.889541803788	76
5	1215277	224.907760329799	76
5	1215774	224.985663911072	76
5	1215834	224.992395344832	76
5	1216189	225.016337295611	76
5	1216631	225.036014551508	76
5	1216794	225.042503787089	76
5	1217130	225.061606672482	76
5	1217190	225.069711715662	76
5	1217376	225.12109691443	76
5	1217562	225.138303895639	76
5	1217792	225.179172977246	76
5	1218196	225.247848155986	76
5	1218256	225.252928750503	76
5	1218384	225.263670828095	76
5	1218652	225.320013812321	76
5	1218852	225.332419374344	76
5	1219077	225.342979486095	76
5	1219265	225.354843927102	76
5	1219722	225.38196263453	76
5	1219798	225.388404837523	76
5	1220034	225.427520623856	76
5	1220274	225.449611280458	76
5	1220484	225.458037022109	76
5	1220736	225.47189685933	76
5	1221091	225.507366146938	76
5	1221321	225.531666203207	76
5	1222006	225.594166823565	76
5	1222342	225.615667328271	76
5	1222528	225.638869618659	76
5	1222769	225.672951097584	76
5	1222957	225.692543409134	76
5	1223222	225.702784194579	76
5	1223541	225.722081695702	76
5	1223658	225.732718152385	76
5	1223843	225.748112575569	76
5	1223970	225.875468072207	76
5	1224206	225.921910165542	76
5	1224333	225.941436799019	76
5	1224778	225.971082153521	76
5	1224865	225.979454916282	76
5	1225059	225.995644301286	76
5	1225199	226.008379845888	76
5	1225384	226.119101687349	76
5	1225571	226.146039682044	76
5	1225756	226.215020404792	76
5	1225884	226.240131483727	76
5	1226011	226.253363364278	76
5	1226242	226.277804442096	76
5	1226425	226.29438868041	76
5	1226786	226.398461134105	76
5	1227214	226.417213486754	76
5	1227343	226.42416573774	76
5	1227629	226.436198542424	76
5	1227769	226.449868705917	76
5	1227999	226.483711785772	76
5	1228183	226.544975047416	76
5	1228371	226.581297441764	76
5	1228557	226.616089277933	76
5	1228738	226.651869652127	76
5	1228804	226.66640310483	76
5	1229001	226.693841457337	76
5	1229140	226.707854966482	76
5	1229454	226.794333891412	76
5	1229604	226.807842062925	76
5	1229847	226.836127625361	76
5	1230038	226.942453324129	76
5	1230184	226.952903555434	76
5	1230391	226.966049494602	76
5	1230575	226.981793783152	76
5	1230639	227.043752174467	76
5	1230822	227.092708172916	76
5	1231035	227.187016598779	76
5	1231177	227.197736094017	76
5	1231405	227.286853821403	76
5	1231471	227.302850926243	76
5	1231860	227.411217587029	76
5	1232001	227.425154958389	76
5	1232125	227.436674203627	76
5	1232252	227.495826019261	76
5	1232379	227.531562691059	76
5	1232612	227.563912446874	76
5	1232797	227.642560125417	76
5	1233031	227.671163679209	76
5	1233217	227.766317478895	76
5	1233494	227.863730621139	76
5	1233884	227.883026910119	76
5	1234058	227.895088329483	76
5	1234120	227.901822584788	76
5	1234247	227.926770785	76
5	1234436	227.947787670901	76
5	1234669	227.981248861831	76
5	1234858	228.02922195063	76
5	1235030	228.039710204549	76
5	1235215	228.056304621351	76
5	1235398	228.12021980813	76
5	1235631	228.174339889893	76
5	1235864	228.202067494179	76
5	1235990	228.212281193407	76
5	1236241	228.269342190185	76
5	1236440	228.28887926093	76
5	1236575	228.328609167942	76
5	1236663	228.339070553233	76
5	1236849	228.390304075821	76
5	1237088	228.456172561134	76
5	1237379	228.521548183784	76
5	1237548	228.532525916698	76
5	1237772	228.544564958675	76
5	1237912	228.555371226273	76
5	1237974	228.561832392939	76
5	1238163	228.579596185997	76
5	1238290	228.657220975316	76
5	1238529	228.689722686914	76
5	1238779	228.729573287011	76
5	1238979	228.745150545055	76
5	1239216	228.79352362173	76
5	1239279	228.803571064515	76
5	1239642	228.886879390019	76
5	1239716	228.896608228239	76
5	1239843	228.922113625318	76
5	1240029	228.963070624684	76
5	1240334	228.995012474381	76
5	1240552	229.006213141509	76
5	1240690	229.015959435486	76
5	1241005	229.059758043123	76
5	1241062	229.064622710251	76
5	1241304	229.176320584642	76
5	1241441	229.201189835451	76
5	1241674	229.220090029546	76
5	1241732	229.22458552728	76
5	1241966	229.255251022536	76
5	1242093	229.266770762463	76
5	1242361	229.306376654644	76
5	1242591	229.317825151559	76
5	1242729	229.330925504711	76
5	1242881	229.423998931188	76
5	1243154	229.443461662148	76
5	1243582	229.468807562001	76
5	1244407	229.590652218343	76
5	1244663	229.613606289315	76
5	1244795	229.62345383862	76
5	1245007	229.641864595223	76
5	1245191	229.882297908163	76
5	1245457	229.922051163624	76
5	1245580	229.932376270903	76
5	1245708	229.980076638702	76
5	1245848	230.015420490397	76
5	1245985	230.030506124887	76
5	1246335	230.060773378672	76
5	1246602	230.069965712309	76
5	1246870	230.081594126533	76
5	1246978	230.087433535409	76
5	1247180	230.107057117287	76
5	1247307	230.120491507814	76
5	1247493	230.186885081131	76
5	1247819	230.241682700251	76
5	1247919	230.248871697863	76
5	1248204	230.268737503861	76
5	1248441	230.282109641668	76
5	1248527	230.287614308796	76
5	1248732	230.298279166967	76
5	1248919	230.309401076864	76
5	1249089	230.322847073717	76
5	1249151	230.330323127977	76
5	1249388	230.432485615112	76
5	1249450	230.437357604474	76
5	1249682	230.481922409499	76
5	1249968	230.52043112426	76
5	1250158	230.582276425166	76
5	1250508	230.607323383204	76
5	1250693	230.621525654248	76
5	1250863	230.63447048103	76
5	1251069	230.652599186061	76
5	1251127	230.657168340978	76
5	1251393	230.689431378604	76
5	1251837	230.777645961769	76
5	1251990	230.792056332741	76
5	1252216	230.838341120513	76
5	1252402	230.860545539028	76
5	1252591	230.884527286955	76
5	1252824	230.929075332147	76
5	1253011	230.961458603633	76
5	1253183	230.97369490108	76
5	1253425	231.008946585048	76
5	1253677	231.029001623038	76
5	1253874	231.039508783001	76
5	1254092	231.05056697504	76
5	1254234	231.06241080706	76
5	1254515	231.08991471486	76
5	1255016	231.125945130284	76
5	1255092	231.132742941316	76
5	1255354	231.22706938801	76
5	1255491	231.250298702842	76
5	1255753	231.269826741564	76
5	1255910	231.281358268598	76
5	1256124	231.296994974605	76
5	1256188	231.315021332091	76
5	1256452	231.420623251551	76
5	1256683	231.4395405705	76
5	1256869	231.468397137652	76
5	1257038	231.480013409474	76
5	1257236	231.494406269045	76
5	1257449	231.513056767095	76
5	1257618	231.52400672478	76
5	1257941	231.565984689677	76
5	1258068	231.590353346575	76
5	1258304	231.620752251956	76
5	1258504	231.687133954702	76
5	1258650	231.698522006866	76
5	1258832	231.715722099846	76
5	1259062	231.740938914156	76
5	1259307	231.761207640729	76
5	1259450	231.774426705573	76
5	1260088	231.818916800058	76
5	1260227	231.83122162684	76
5	1260354	231.877504914697	76
5	1260539	231.922159579089	76
5	1260880	231.948500054576	76
5	1260940	231.955731227794	76
5	1261014	231.970330068933	76
5	1261294	232.048328335039	76
5	1261421	232.074914932795	76
5	1261654	232.10300285888	76
5	1261831	232.178126683573	76
5	1262041	232.189394434943	76
5	1262127	232.194439064812	76
5	1262315	232.291363767193	76
5	1262501	232.315517531431	76
5	1262825	232.375702171175	76
5	1263136	232.392293520182	76
5	1263308	232.405914063724	76
5	1263367	232.411418730852	76
5	1263527	232.456268149589	76
5	1263757	232.467434221407	76
5	1263815	232.472086034827	76
5	1264053	232.506603677981	76
5	1264214	232.520486121053	76
5	1264487	232.536625703014	76
5	1264686	232.572711679213	76
5	1265106	232.661170942175	76
5	1265163	232.668868397729	76
5	1265321	232.713118644066	76
5	1265608	232.752567526374	76
5	1265875	232.779084628674	76
5	1266057	232.794309878727	76
5	1266245	232.872096217115	76
5	1266515	232.918907918915	76
5	1266692	232.930139972446	76
5	1267010	232.952837222268	76
5	1267190	232.969148457056	76
5	1267376	232.985505469518	76
5	1267560	233.026637248683	76
5	1267899	233.122220170269	76
5	1268076	233.137952080933	76
5	1268204	233.159045050713	76
5	1268390	233.17702050937	76
5	1268623	233.225442498029	76
5	1268837	233.326972626863	76
5	1269022	233.341727024294	76
5	1269265	233.384499684012	76
5	1269329	233.418884761185	76
5	1269454	233.441845727415	76
5	1269773	233.5161342933	76
5	1269974	233.537205528552	76
5	1270160	233.564382373148	76
5	1270399	233.594556746572	76
5	1270461	233.599307906475	76
5	1270636	233.638962823413	76
5	1270903	233.670572428162	76
5	1271117	233.722058591244	76
5	1271364	233.780581768712	76
5	1271519	233.824009461446	76
5	1271847	233.841414146333	76
5	1271924	233.851183412679	76
5	1272226	233.868302195795	76
5	1272367	233.879163560645	76
5	1272602	233.932228481014	76
5	1272785	233.949298091921	76
5	1273024	234.030379911212	76
5	1273151	234.043021118713	76
5	1273956	234.174860486066	76
5	1274203	234.213564824396	76
5	1274374	234.227414755334	76
5	1274637	234.271543385336	76
5	1274896	234.285393823722	76
5	1275051	234.298132573352	76
5	1275275	234.312253751736	76
5	1275499	234.330028518356	76
5	1275715	234.414350302088	76
5	1275817	234.421300671408	76
5	1275903	234.425845338536	76
5	1276103	234.441994281349	76
5	1276289	234.461417734504	76
5	1276465	234.521674175229	76
5	1276604	234.536799925885	76
5	1276831	234.575819407935	76
5	1277221	234.6043795377	76
5	1277359	234.618931087633	76
5	1277587	234.727855403737	76
5	1277714	234.738405975702	76
5	1277841	234.773823333656	76
5	1278149	234.833131254297	76
5	1278361	234.852036648399	76
5	1278502	234.863740339362	76
5	1278725	234.947500154496	76
5	1278973	234.98540708023	76
5	1279157	235.009627219031	76
5	1279345	235.03437790291	76
5	1279531	235.082181301307	76
5	1279658	235.110405150359	76
5	1279733	235.146962989851	76
5	1279955	235.166076278361	76
5	1280236	235.214240453452	76
5	1280295	235.219618683594	76
5	1281186	235.320369301632	76
5	1281998	235.364494636249	76
5	1282072	235.373634207588	76
5	1282310	235.478052660684	76
5	1282490	235.494080226951	76
5	1282617	235.506940172056	76
5	1282846	235.538722241323	76
5	1283079	235.570313465184	76
5	1283313	235.600805552629	76
5	1283546	235.640339827678	76
5	1283871	235.680589997485	76
5	1284069	235.697878526224	76
5	1284408	235.755653146799	76
5	1284534	235.766248517836	76
5	1284794	235.915383872573	76
5	1285067	235.927052214503	76
5	1285400	235.940256659172	76
5	1285596	235.949186450195	76
5	1285888	235.962831365762	76
5	1286085	235.974401746231	76
5	1286143	235.978869017399	76
5	1286329	236.026698767207	76
5	1286519	236.05172725644	76
5	1286583	236.109697011538	76
5	1286826	236.169880824191	76
5	1287110	236.184117061291	76
5	1287262	236.200097826364	76
5	1287549	236.230292321317	76
5	1287851	236.246249670195	76
5	1287995	236.257406803776	76
5	1288362	236.279934286857	76
5	1288447	236.286592453078	76
5	1288672	236.304966490979	76
5	1288854	236.332156907579	76
5	1289043	236.351150951093	76
5	1289108	236.37732111861	76
5	1289342	236.427807345859	76
5	1289589	236.442775799232	76
5	1289763	236.456141691095	76
5	1289831	236.464790806911	76
5	1290011	236.479230360714	76
5	1290307	236.502280041747	76
5	1290447	236.515585628996	76
5	1290574	236.623617575217	76
5	1290837	236.647092151595	76
5	1290986	236.663391261837	76
5	1291225	236.689001299431	76
5	1291411	236.739255722374	76
5	1291647	236.824517522333	76
5	1291832	236.844446706088	76
5	1292316	236.894381441875	76
5	1292552	236.931170498355	76
5	1292860	236.968923534445	76
5	1293017	236.980066393976	76
5	1293140	236.990532215814	76
5	1293382	237.020876840954	76
5	1293509	237.031305851777	76
5	1293681	237.042869008907	76
5	1293939	237.080534904533	76
5	1294306	237.107353257882	76
5	1294446	237.119263198167	76
5	1294745	237.150650531562	76
5	1294975	237.166088069755	76
5	1295143	237.181441673741	76
5	1295207	237.241191978351	76
5	1295390	237.289877589533	76
5	1295577	237.339654002122	76
5	1295810	237.403146320425	76
5	1296148	237.425096796245	76
5	1296212	237.437866181356	76
5	1296274	237.460110882098	76
5	1296399	237.536041223055	76
5	1296643	237.655431371079	76
5	1296783	237.666201447612	76
5	1296910	237.692779642772	76
5	1297152	237.722474085261	76
5	1297279	237.799013892608	76
5	1297465	237.84360755052	76
5	1297592	237.894156781517	76
5	1297822	237.925783439309	76
5	1298107	237.953437879043	76
5	1298406	237.982104131963	76
5	1298639	238.123481110886	76
5	1298875	238.195068350477	76
5	1299350	238.281503620536	76
5	1299562	238.367200909977	76
5	1299800	238.378089693608	76
5	1299872	238.386078604313	76
5	1300221	238.475880809976	76
5	1300397	238.486926008894	76
5	1300551	238.503012425485	76
5	1300800	238.625607426463	76
5	1301022	238.644088277679	76
5	1301377	238.672309165973	76
5	1301517	238.687550378544	76
5	1301700	238.750609643866	76
5	1301886	238.803845779786	76
5	1302253	238.829183688453	76
5	1302331	238.836439465619	76
5	1302770	238.865520274752	76
5	1302849	238.874162095901	76
5	1302908	238.880946763029	76
5	1303147	238.915349799791	76
5	1303334	239.058594151744	76
5	1303582	239.090505211769	76
5	1303825	239.10099605751	76
5	1303899	239.109895373078	76
5	1304117	239.304901527185	76
5	1304273	239.315532020382	76
5	1304442	239.326045776115	76
5	1304568	239.337139709118	76
5	1304723	239.35536221541	76
5	1305177	239.384828547213	76
5	1305418	239.395860197289	76
5	1305544	239.406121955982	76
5	1305669	239.41751462311	76
5	1305904	239.517246048286	76
5	1306135	239.555629826539	76
5	1306321	239.628595719962	76
5	1306507	239.684424428478	76
5	1306571	239.695714785578	76
5	1306800	239.758310193175	76
5	1307038	239.826544339764	76
5	1307116	239.858152527354	76
5	1307395	239.871174804172	76
5	1307583	239.881581850397	76
5	1307644	239.887160336921	76
5	1307899	239.913484299399	76
5	1307985	239.918972330825	76
5	1308124	239.929592159635	76
5	1308187	239.937544158558	76
5	1308423	239.983910113285	76
5	1308653	240.022546504783	76
5	1308781	240.060573959421	76
5	1309198	240.102441620503	76
5	1309401	240.110320609582	76
5	1309552	240.12556603034	76
5	1309799	240.162793315064	76
5	1309997	240.175088942796	76
5	1310211	240.1895259933	76
5	1310383	240.203905134489	76
5	1310645	240.24622158766	76
5	1310819	240.260152358445	76
5	1311046	240.281728515051	76
5	1311222	240.365635466152	76
5	1311391	240.377304012054	76
5	1311808	240.42138169993	76
5	1311870	240.429017532951	76
5	1312144	240.509650778308	76
5	1312489	240.529098744792	76
5	1312629	240.542714792875	76
5	1312868	240.599392507823	76
5	1313054	240.657180606164	76
5	1313274	240.711100927767	76
5	1313509	240.831984343971	76
5	1313636	240.851590167926	76
5	1314017	240.929775337538	76
5	1314154	240.943721825196	76
5	1314262	240.963302741718	76
5	1314613	241.088986487555	76
5	1314788	241.102508034044	76
5	1314971	241.173404857635	76
5	1315035	241.187686982739	76
5	1315308	241.249440257729	76
5	1315577	241.31695545248	76
5	1315705	241.340857860833	76
5	1315832	241.353089833392	76
5	1316061	241.40261561875	76
5	1316319	241.435671173495	76
5	1316507	241.454083085379	76
5	1316634	241.466695692848	76
5	1316847	241.541963751485	76
5	1317035	241.571990935562	76
5	1317099	241.601377890753	76
5	1317283	241.640117107629	76
5	1317669	241.724815265494	76
5	1317817	241.738088376478	76
5	1317990	241.789263850235	76
5	1318268	241.862477502055	76
5	1318566	241.876535066904	76
5	1318708	241.889005238609	76
5	1318893	241.930490385873	76
5	1319124	241.952120194629	76
5	1319198	241.961123273843	76
5	1319475	242.01976683378	76
5	1319708	242.115079504197	76
5	1320028	242.165942450548	76
5	1320306	242.191439209611	76
5	1320535	242.281618664377	76
5	1320734	242.299080589927	76
5	1320861	242.333218472453	76
5	1321264	242.370969275468	76
5	1321450	242.386895640776	76
5	1321753	242.425339672798	76
5	1321927	242.440847844231	76
5	1322306	242.463273703646	76
5	1322554	242.476282312009	76
5	1322615	242.482574075556	76
5	1322742	242.505557416342	76
5	1322945	242.604722496145	76
5	1323073	242.656924303835	76
5	1323441	242.726228936941	76
5	1323796	242.744937254977	76
5	1324205	242.761475294608	76
5	1324285	242.767444465535	76
5	1324349	242.778702734637	76
5	1324533	242.867288612968	76
5	1324595	242.874079191249	76
5	1324855	242.993573654807	76
5	1325125	243.017435141302	76
5	1325297	243.02357980843	76
5	1325609	243.038091608798	76
5	1325684	243.043874479884	76
5	1325864	243.06043145523	76
5	1325991	243.081824264562	76
5	1326427	243.115152992929	76
5	1326503	243.124294031065	76
5	1326739	243.157653545444	76
5	1326975	243.196828420157	76
5	1327269	243.28456248958	76
5	1327517	243.302074599298	76
5	1327796	243.322686888659	76
5	1328088	243.423958518339	76
5	1328345	243.525515713706	76
5	1328534	243.57053448715	76
5	1328723	243.605380391975	76
5	1328786	243.615452467299	76
5	1329061	243.644135277582	76
5	1329328	243.68421630601	76
5	1329443	243.690789653111	76
5	1329709	243.710880339276	76
5	1329882	243.724381741277	76
5	1330071	243.762835088276	76
5	1330525	243.801547859852	76
5	1330693	243.809761606045	76
5	1330915	243.821757355246	76
5	1330978	243.83336996183	76
5	1331188	243.876643448139	76
5	1331297	243.952145466592	76
5	1331528	243.988725224657	76
5	1331592	244.006145373259	76
5	1331717	244.028603433515	76
5	1331983	244.107900144662	76
5	1332176	244.319976141394	76
5	1332316	244.335401956079	76
5	1332561	244.43995517958	76
5	1332623	244.451418024562	76
5	1332685	244.471360076722	76
5	1332792	244.541160745882	76
5	1333062	244.571277158288	76
5	1333357	244.586738261533	76
5	1333497	244.59759577813	76
5	1333562	244.630112869307	76
5	1333902	244.647562666243	76
5	1334077	244.661090904628	76
5	1334204	244.678765591285	76
5	1334506	244.764121758949	76
5	1334833	244.807904747983	76
5	1335040	244.822532248144	76
5	1335330	244.915944988694	76
5	1335646	244.942048146787	76
5	1335908	244.956795514256	76
5	1336047	244.966234604828	76
5	1336334	245.007498190487	76
5	1336790	245.02702623247	76
5	1336901	245.031584248122	76
5	1337209	245.046028249283	76
5	1337415	245.058234482247	76
5	1337539	245.068609202094	76
5	1337667	245.165948130195	76
5	1337912	245.187399202519	76
5	1338084	245.200420521451	76
5	1338269	245.274587764761	76
5	1338407	245.309436849608	76
5	1338630	245.328017252175	76
5	1338694	245.357530722668	76
5	1338877	245.405030540478	76
5	1339005	245.421719637742	76
5	1339254	245.446413234636	76
5	1339425	245.459154170637	76
5	1339554	245.474552734515	76
5	1339743	245.528029422542	76
5	1339978	245.557591941015	76
5	1340170	245.602920941581	76
5	1340319	245.616542701039	76
5	1340509	245.694839307052	76
5	1341089	245.750001806872	76
5	1341211	245.758894035923	76
5	1341391	245.773412311293	76
5	1341624	245.804616461606	76
5	1341874	245.836798800126	76
5	1342015	245.848293417868	76
5	1342079	245.869644740305	76
5	1342260	245.89049564626	76
5	1342618	245.924457818975	76
5	1342677	245.929615567497	76
5	1343038	246.02160361878	76
5	1343180	246.033493376647	76
5	1343369	246.120352687157	76
5	1343551	246.159081464895	76
5	1343791	246.246547910156	76
5	1343918	246.271929913244	76
5	1344154	246.393709589288	76
5	1344281	246.4339561498	76
5	1344408	246.45744443588	76
5	1344643	246.482271947549	76
5	1345028	246.539048042295	76
5	1345087	246.544164010562	76
5	1345215	246.564740358932	76
5	1345342	246.596299625238	76
5	1345469	246.64913670905	76
5	1345655	246.702492633218	76
5	1346065	246.819961724599	76
5	1346184	246.832379629248	76
5	1346273	246.839410799983	76
5	1346425	246.855397048588	76
5	1346670	246.870185249358	76
5	1346815	246.882648470263	76
5	1347363	246.907379933805	76
5	1347512	246.916744817481	76
5	1347631	246.925467940537	76
5	1347822	246.947092095148	76
5	1348059	246.966228331527	76
5	1348250	246.983631569022	76
5	1348518	247.000415939584	76
5	1348734	247.019448686609	76
5	1348962	247.037789024629	76
5	1349199	247.066019189235	76
5	1349634	247.104413127728	76
5	1349723	247.109085816149	76
5	1349932	247.128894853426	76
5	1350162	247.185775845635	76
5	1350353	247.217764181305	76
5	1350580	247.230734590876	76
5	1351154	247.256406897355	76
5	1351219	247.261870479113	76
5	1351306	247.268124981036	76
5	1351560	247.280327038728	76
5	1351634	247.287729748717	76
5	1351698	247.342386023774	76
5	1351882	247.407105461882	76
5	1352115	247.427746143675	76
5	1352409	247.449843793661	76
5	1352593	247.459995758955	76
5	1352765	247.473482741851	76
5	1352965	247.542498799143	76
5	1353024	247.547363466271	76
5	1353210	247.717379861364	76
5	1353528	247.761117731649	76
5	1353670	247.771668760885	76
5	1353797	247.823066978646	76
5	1353983	247.875304337644	76
5	1354045	247.881266226075	76
5	1354234	247.919989305942	76
5	1354405	247.933416382373	76
5	1354702	247.988848483824	76
5	1354913	248.00381426674	76
5	1355052	248.015318372443	76
5	1355253	248.042394510252	76
5	1355393	248.053731325162	76
5	1355457	248.146376704149	76
5	1355517	248.153769014192	76
5	1355702	248.174165244121	76
5	1356004	248.236633879686	76
5	1356265	248.246948390254	76
5	1356448	248.263291820304	76
5	1356569	248.272641165015	76
5	1356698	248.326556498414	76
5	1356887	248.445675129494	76
5	1357126	248.548096705171	76
5	1357416	248.59621842049	76
5	1357755	248.614030306487	76
5	1357944	248.625882095773	76
5	1358179	248.690116978149	76
5	1358500	248.772856494351	76
5	1358565	248.796112625718	76
5	1358749	248.837307350815	76
5	1358987	248.898961192151	76
5	1359228	248.941694953733	76
5	1359456	248.959725150007	76
5	1359755	248.991833388759	76
5	1359896	249.004659466221	76
5	1360037	249.022011548672	76
5	1360177	249.036699941559	76
5	1360471	249.07353948499	76
5	1360644	249.086203123573	76
5	1360830	249.105002544022	76
5	1360892	249.113006418602	76
5	1361019	249.172118916341	76
5	1361221	249.249205286941	76
5	1361296	249.257149893143	76
5	1361360	249.278676181051	76
5	1361485	249.309939721393	76
5	1361718	249.351197843531	76
5	1361946	249.393441413729	76
5	1362192	249.429539439716	76
5	1362304	249.435440771481	76
5	1362427	249.445752400709	76
5	1362672	249.491373206129	76
5	1362907	249.511385206991	76
5	1363196	249.533933025523	76
5	1363256	249.540717692651	76
5	1363442	249.55967390178	76
5	1363733	249.582573001878	76
5	1363901	249.595693916237	76
5	1364030	249.641438832981	76
5	1364157	249.668482363831	76
5	1364392	249.718425560364	76
5	1364464	249.785178411406	76
5	1364586	249.796284795936	76
5	1364775	249.833973811084	76
5	1365045	249.851244330682	76
5	1365169	249.862097530705	76
5	1365332	249.903105020573	76
5	1365519	249.917512241332	76
5	1365700	249.933256901223	76
5	1365827	249.987296859066	76
5	1366196	250.087392325849	76
5	1366472	250.161616286883	76
5	1366681	250.173887770364	76
5	1367170	250.203252631265	76
5	1367352	250.214951733372	76
5	1367476	250.225997772201	76
5	1367706	250.248970193877	76
5	1367956	250.292509301107	76
5	1368156	250.309418854406	76
5	1368560	250.389215841746	76
5	1368836	250.410056261921	76
5	1369089	250.493716167528	76
5	1369216	250.51366411249	76
5	1369549	250.588615413473	76
5	1369701	250.608830936963	76
5	1370227	250.638950252653	76
5	1370304	250.650067942852	76
5	1370773	250.684485514895	76
5	1371028	250.720072244208	76
5	1371187	250.735627819164	76
5	1371311	250.748168911336	76
5	1371452	250.788558867729	76
5	1371622	250.800276475007	76
5	1372090	250.897978513965	76
5	1372258	250.910716116564	76
5	1372322	250.919841989483	76
5	1372533	250.953694284127	76
5	1372720	251.009225343639	76
5	1372940	251.032403844651	76
5	1373126	251.076918294246	76
5	1373558	251.144085687621	76
5	1373622	251.149887906518	76
5	1373746	251.161839813454	76
5	1374035	251.180280339582	76
5	1374186	251.19629626984	76
5	1374520	251.233199415414	76
5	1374813	251.248445761553	76
5	1374991	251.263900184906	76
5	1375224	251.332580414224	76
5	1375435	251.355659499253	76
5	1375605	251.38355343886	76
5	1375714	251.427684013078	76
5	1375951	251.515221142472	76
5	1376137	251.532558830023	76
5	1376444	251.737524625765	76
5	1376662	251.753760203202	76
5	1376877	251.768678286236	76
5	1376937	251.774497029984	76
5	1377061	251.783582511379	76
5	1377276	251.803757944952	76
5	1377498	251.821316780362	76
5	1377681	251.851629009231	76
5	1378007	251.937797265094	76
5	1378517	251.967519249845	76
5	1378592	251.974974150574	76
5	1378999	252.046831424512	76
5	1379241	252.145931498398	76
5	1379518	252.184351262064	76
5	1379843	252.201631179915	76
5	1380145	252.22065557554	76
5	1380455	252.237843161123	76
5	1380625	252.248354163065	76
5	1380776	252.263256792134	76
5	1381009	252.348058358027	76
5	1381270	252.414571214861	76
5	1381503	252.45685992392	76
5	1381630	252.476669078567	76
[...]
850	2465004	429.443869967661	0.91489361702128
850	2465444	429.470863455069	0.92553191489362
850	2479485	431.614822839247	0.91578947368421
850	2479737	431.635336326655	0.92631578947368
850	2484718	432.159749171873	0.91666666666667
850	2485232	432.187382659281	0.92708333333333
850	2501546	434.596216666618	0.91752577319588
850	2501991	434.622618154026	0.92783505154639
850	2505588	435.070405695908	0.91836734693878
850	2505785	435.092839183316	0.92857142857143
850	2508756	435.64063903882	0.91919191919192
850	2508955	435.664992526228	0.92929292929293
850	2514043	436.466153038393	0.92
850	2514497	436.493146525801	0.93
860	1199126	222.095631843829	76
860	1205908	223.590281004134	76
860	1213711	224.741414623416	76
860	1217833	225.226374698774	76
860	1239316	228.868014771027	76
860	1240730	229.026379918783	76
860	1256439	231.419667113288	76
860	1259644	231.788265958472	76
860	1265708	232.769876421515	76
860	1283584	235.661356540273	76
860	1343956	246.369996132076	76
860	1354097	247.912262925161	76
860	1362649	249.488951749779	76
860	1369351	250.567461956261	76
860	1373796	251.168982812628	76
860	1400437	255.667797250005	76
860	1405616	256.534275789211	76
860	1436440	261.627975234971	76
860	1439997	262.345567236849	76
860	1443046	262.73834703635	76
860	1448602	263.53729143584	76
860	1459184	265.660756080929	76
860	1460373	265.798230686894	76
860	1475563	268.135881647031	76
860	1478544	268.508725994081	76
860	1479023	268.559577909044	76
860	1487414	269.743393374761	76
860	1511258	272.822598735819	76
860	1527152	274.913698896446	76
860	1543428	277.979802482289	76
860	1574126	283.372442279106	76
860	1578941	284.003177618366	76
860	1580830	284.344273203642	76
860	1593838	286.612476649098	76
860	1603022	288.197963813594	76
860	1619079	290.759149094498	76
860	1620895	291.071870954949	76
860	1629782	292.440149947088	76
860	1631649	292.733971586503	76
860	1640160	294.140294428571	76
860	1642187	294.416595307354	76
860	1656653	296.51563559785	76
860	1663137	297.262115469628	76
860	1668878	298.278843017403	76
860	1678022	300.324838285995	76
860	1679248	300.597677614495	76
860	1681181	300.851954390566	76
860	1681781	301.006815250386	76
860	1703341	304.754618974904	76
860	1709055	305.534924299514	76
860	1713554	306.547068427652	76
860	1720076	307.525717849007	76
860	1781392	318.981281603486	76
860	1789857	320.330345515489	76
860	1814185	324.355940500301	76
860	1839626	328.802285376459	76
860	1843317	329.128136081237	76
860	1849527	330.316891198783	76
860	1850487	330.451157904681	76
860	1858958	331.543074157172	76
860	1887804	336.227307026066	76
860	1890736	336.652862994309	76
860	1891745	336.733383384842	76
860	1892266	336.807665620875	76
860	1899823	338.450038825046	76
860	1933171	343.189409589646	76
860	1943222	344.815643388157	76
860	1943371	344.827523673159	76
860	1969147	348.764708133403	76
860	1971129	349.163815838697	76
860	1979054	350.374038031249	76
860	1979367	350.408575657544	76
860	1979731	350.492344538315	76
860	2023892	358.174517751196	76
860	2024996	358.304339871089	76
860	2026560	358.839325366866	76
860	2027970	359.014409550718	76
860	2053735	362.855083137561	76
860	2067871	365.614028313862	76
860	2078790	367.381425663979	76
860	2101724	371.26225170313	76
860	2102672	371.486493359567	76
860	2143540	378.153125210199	76
860	2146337	378.552186125699	76
860	2151146	379.308593137491	76
860	2156273	380.203424150376	76
860	2158990	380.643887848974	76
860	2195340	386.399556871639	76
860	2199625	387.105376086196	76
860	2217600	390.138406995791	76
860	2246200	394.455721470498	76
860	2247099	394.51934119402	76
860	2255228	395.702077700033	76
860	2261880	397.126390580037	76
860	2264637	397.444151405758	76
860	2268966	397.961539667285	76
860	2274252	398.861412434583	76
860	2284326	400.44789101515	76
860	2298588	402.801827608774	76
860	2299448	402.93359176981	76
862	1199512	222.120113301041	76
862	1206120	223.611754461346	76
862	1214432	224.779496080628	76
862	1218196	225.247848155986	76
862	1239716	228.896608228239	76
862	1241005	229.059758043123	76
862	1256683	231.4395405705	76
862	1266057	232.794309878727	76
862	1283871	235.680589997485	76
862	1344154	246.393709589288	76
862	1354405	247.933416382373	76
862	1362907	249.511385206991	76
862	1369549	250.588615413473	76
862	1374186	251.19629626984	76
862	1400635	255.689590707217	76
862	1406006	256.566837246423	76
862	1436638	261.649768692183	76
862	1440379	262.368640694061	76
862	1443818	262.778236493562	76
862	1449020	263.567020893052	76
862	1459429	265.681909538141	76
862	1460738	265.821944144106	76
862	1475851	268.157995104243	76
862	1478803	268.530519451293	76
862	1479221	268.580731366256	76
862	1487612	269.765186831973	76
862	1511957	272.863832193031	76
862	1543673	278.001275939501	76
862	1574444	283.395195736318	76
862	1579616	284.050091742706	76
862	1581030	284.364146660854	76
862	1594036	286.63395010631	76
862	1619402	290.78190255171	76
862	1621406	291.110864412161	76
862	1629980	292.4613034043	76
862	1631848	292.755765043715	76
862	1640444	294.163047885783	76
862	1642702	294.456191095006	76
862	1656853	296.538389055062	76
862	1663487	297.28814892684	76
862	1669076	298.300316474615	76
862	1678220	300.346311743207	76
862	1679449	300.619791071707	76
862	1681383	300.875027847778	76
862	1682052	301.031744707598	76
862	1703613	304.775452432116	76
862	1709295	305.556077756726	76
862	1713752	306.569501884864	76
862	1720426	307.556039306219	76
862	1781651	319.006275060698	76
862	1790539	320.371674972701	76
862	1814442	324.376773957513	76
862	1839910	328.827663500799	76
862	1843518	329.149929538449	76
862	1849759	330.339964655995	76
862	1850853	330.473911361893	76
862	1859207	331.564867614384	76
862	1888358	336.260908483278	76
862	1891146	336.684976451521	76
862	1892055	336.755176842054	76
862	1892464	336.831059078087	76
862	1900184	338.484456282258	76
862	1933413	343.211203046858	76
862	1943752	344.854693130371	76
862	1944023	344.881558006239	76
862	1969550	348.795541590615	76
862	1971720	349.199849295909	76
862	1979261	350.397751488461	76
862	1979565	350.428769114756	76
862	1979928	350.512217995527	76
862	2024282	358.213975208408	76
862	2025192	358.325173328301	76
862	2026758	358.861118824078	76
862	2028171	359.03620300793	76
862	2053946	362.877196594773	76
862	2068069	365.635501771074	76
862	2079268	367.403859121191	76
862	2102161	371.284365160342	76
862	2102884	371.508606816779	76
862	2144409	378.203894667411	76
862	2146537	378.573659582911	76
862	2151344	379.329106594703	76
862	2156646	380.227137607588	76
862	2159235	380.665361306186	76
862	2196036	386.427830328851	76
862	2199823	387.129089543408	76
862	2218208	390.177080453003	76
862	2246791	394.48239492771	76
862	2247349	394.542094651232	76
862	2255426	395.725151157245	76
862	2262080	397.147224037249	76
862	2269389	397.983973124497	76
862	2274815	398.892325891795	76
862	2284527	400.470004472362	76
862	2298881	402.827221065986	76
862	2299650	402.956025227022	76
863	5024	30	76
863	18976	31.032406909874	76
863	24448	31.632925418022	76
863	27696	32.115437436251	76
863	35904	33.245357890257	76
863	44202	34.166830313954	76
863	50506	35.610316141182	76
863	54141	36.116099408962	76
863	70181	39.26865289234	76
863	80157	40.467955215449	76
863	98568	43.257426494028	76
863	109377	44.799176678566	76
863	163360	52.624964786449	76
863	165500	52.992637374262	76
863	172451	54.351461259657	76
863	193418	57.863608392599	76
863	196781	58.956351038608	76
863	197209	59.038923495326	76
863	202551	59.786828326027	76
863	209156	60.768887646779	76
863	216797	62.254427945662	76
863	223624	63.35388581878	76
863	230295	64.376742120329	76
863	233890	65.023638391069	76
863	236689	65.596164938072	76
863	268208	70.859145845981	76
863	270984	71.360181097893	76
863	272386	71.556526618156	76
863	304232	76.845338071364	76
863	306998	77.473206833395	76
863	310755	77.902209327518	76
863	315981	78.776217998922	76
863	320610	79.227512688485	76
863	357456	85.299430283916	76
863	361749	86.027059938025	76
863	385455	89.976732018544	76
863	390123	90.763670332134	76
863	399618	92.541776412826	76
863	424735	96.525163843908	76
863	430210	97.354884259374	76
863	444450	99.578952993989	76
863	462061	102.322833750649	76
863	473388	104.408282564254	76
863	475500	104.601512875607	76
863	477956	104.993790151693	76
863	479698	105.324576495719	76
863	488400	106.797694635233	76
863	488950	106.863975672677	76
863	490729	107.196882240281	76
863	497862	108.506864430284	76
863	499880	108.789819726526	76
863	517248	112.134020642555	76
863	524809	113.067561152636	76
863	525959	113.224943488684	76
863	565669	119.268522208804	76
863	573325	120.470188678075	76
863	588423	122.642489845672	76
863	590861	123.038471171994	76
863	594663	123.765657224679	76
863	645778	132.396430003497	76
863	655727	133.641380077357	76
863	680393	137.68175273863	76
863	685853	138.393342719228	76
863	709242	141.600122182198	76
863	709350	141.61137577606	76
863	711628	141.926009530959	76
863	718849	142.998560960232	76
863	727403	144.306926208597	76
863	734031	145.179681260479	76
863	736108	145.454550112468	76
863	745760	147.369832260853	76
863	758256	149.474489901057	76
863	784475	153.196989048599	76
863	792639	154.310782147994	76
863	796407	154.815985953073	76
863	813806	158.743971277217	76
863	838622	162.605600763591	76
863	849726	164.049956389069	76
863	862965	166.061322675118	76
863	869234	167.070566029147	76
863	870655	167.292958107627	76
863	878424	168.667482016435	76
863	879779	168.867443548156	76
863	887566	170.165792728485	76
863	892332	170.987427768081	76
863	895190	171.522197811797	76
863	895193	171.522424996627	76
863	907439	173.667950957854	76
863	929785	177.563895835476	76
863	939318	178.993142975545	76
863	964890	182.693724723843	76
863	966157	182.915526049016	76
863	998194	187.989501645556	76
863	1003037	188.618326625389	76
863	1020430	191.610270016022	76
863	1041622	194.632671204635	76
863	1063905	198.979280144053	76
863	1071013	200.595919290315	76
863	1072727	200.792250270985	76
863	1076891	201.724218898258	76
863	1091126	203.635692567478	76
863	1113254	207.392038008437	76
863	1123245	209.243997509599	76
863	1136103	211.741481800021	76
863	1145629	213.115696374091	76
863	1174555	217.451190296058	76
863	1181406	219.199438901735	76
863	1186093	219.951124008568	76
863	2302328	403.311560392999	76
863	2326854	407.568771929623	76
863	2336929	409.187428480546	76
863	2337651	409.432004048342	76
863	2338944	409.655242419196	76
863	2340614	409.844005517848	76
863	2343331	410.266992619094	76
863	2349677	411.138336788681	76
863	2350305	411.211046374341	76
863	2357149	412.466363231118	76
863	2377119	414.840568305348	76
863	2379593	415.437596259431	76
863	2381063	415.68144487371	76
863	2387252	416.750035654077	76
863	2404207	419.915544791813	76
863	2420992	422.565572395822	76
863	2433035	424.500980376921	76
863	2442117	425.602518775507	76
863	2445865	426.482017463724	76
863	2460347	428.549728615134	76
863	2497317	433.908280682935	76
863	2539774	440.560265665259	76
863	2551735	442.533129509653	76
863	2553883	442.922447769442	76
863	2566962	445.261287425987	76
863	2570167	445.626284586924	76
863	2587777	448.625823129294	76
863	2589956	449.039537220394	76
863	2594890	449.968430182468	76
863	2618150	453.069406561944	76
863	2618699	453.180212312011	76
863	2618935	453.227043205328	76
863	2623006	453.719236479791	76
863	2666180	461.28140905975	76
863	2686966	464.60464129915	76
863	2702974	467.457779856431	76
863	2733630	472.703851163949	76
863	2735803	472.884751574733	76
863	2738393	473.165287077932	76
864	1199126	222.095631843829	-nan
864	1199512	222.120113301041	1
864	1205908	223.590281004134	0.5
864	1206120	223.611754461346	1
864	1213711	224.741414623416	0.66666666666667
864	1214432	224.779496080628	1
864	1217833	225.226374698774	0.75
864	1218196	225.247848155986	1
864	1239316	228.868014771027	0.8
864	1239716	228.896608228239	1
864	1240730	229.026379918783	0.83333333333333
864	1241005	229.059758043123	1
864	1256439	231.419667113288	0.85714285714286
864	1256683	231.4395405705	1
864	1259644	231.788265958472	0.875
864	1265708	232.769876421515	0.77777777777778
864	1266057	232.794309878727	0.88888888888889
864	1283584	235.661356540273	0.8
864	1283871	235.680589997485	0.9
864	1343956	246.369996132076	0.81818181818182
864	1344154	246.393709589288	0.90909090909091
864	1354097	247.912262925161	0.83333333333333
864	1354405	247.933416382373	0.91666666666667
864	1362649	249.488951749779	0.84615384615385
864	1362907	249.511385206991	0.92307692307692
864	1369351	250.567461956261	0.85714285714286
864	1369549	250.588615413473	0.92857142857143
864	1373796	251.168982812628	0.86666666666667
864	1374186	251.19629626984	0.93333333333333
864	1400437	255.667797250005	0.875
864	1400635	255.689590707217	0.9375
864	1405616	256.534275789211	0.88235294117647
864	1406006	256.566837246423	0.94117647058824
864	1436440	261.627975234971	0.88888888888889
864	1436638	261.649768692183	0.94444444444444
864	1439997	262.345567236849	0.89473684210526
864	1440379	262.368640694061	0.94736842105263
864	1443046	262.73834703635	0.9
864	1443818	262.778236493562	0.95
864	1448602	263.53729143584	0.9047619047619
864	1449020	263.567020893052	0.95238095238095
864	1459184	265.660756080929	0.90909090909091
864	1459429	265.681909538141	0.95454545454545
864	1460373	265.798230686894	0.91304347826087
864	1460738	265.821944144106	0.95652173913043
864	1475563	268.135881647031	0.91666666666667
864	1475851	268.157995104243	0.95833333333333
864	1478544	268.508725994081	0.92
864	1478803	268.530519451293	0.96
864	1479023	268.559577909044	0.92307692307692
864	1479221	268.580731366256	0.96153846153846
864	1487414	269.743393374761	0.92592592592593
864	1487612	269.765186831973	0.96296296296296
864	1511258	272.822598735819	0.92857142857143
864	1511957	272.863832193031	0.96428571428571
864	1527152	274.913698896446	0.93103448275862
864	1543428	277.979802482289	0.9
864	1543673	278.001275939501	0.93333333333333
864	1574126	283.372442279106	0.90322580645161
864	1574444	283.395195736318	0.93548387096774
864	1578941	284.003177618366	0.90625
864	1579616	284.050091742706	0.9375
864	1580830	284.344273203642	0.90909090909091
864	1581030	284.364146660854	0.93939393939394
864	1593838	286.612476649098	0.91176470588235
864	1594036	286.63395010631	0.94117647058824
864	1603022	288.197963813594	0.91428571428571
864	1619079	290.759149094498	0.88888888888889
864	1619402	290.78190255171	0.91666666666667
864	1620895	291.071870954949	0.89189189189189
864	1621406	291.110864412161	0.91891891891892
864	1629782	292.440149947088	0.89473684210526
864	1629980	292.4613034043	0.92105263157895
864	1631649	292.733971586503	0.8974358974359
864	1631848	292.755765043715	0.92307692307692
864	1640160	294.140294428571	0.9
864	1640444	294.163047885783	0.925
864	1642187	294.416595307354	0.90243902439024
864	1642702	294.456191095006	0.92682926829268
864	1656653	296.51563559785	0.9047619047619
864	1656853	296.538389055062	0.92857142857143
864	1663137	297.262115469628	0.90697674418605
864	1663487	297.28814892684	0.93023255813953
864	1668878	298.278843017403	0.90909090909091
864	1669076	298.300316474615	0.93181818181818
864	1678022	300.324838285995	0.91111111111111
864	1678220	300.346311743207	0.93333333333333
864	1679248	300.597677614495	0.91304347826087
864	1679449	300.619791071707	0.93478260869565
864	1681181	300.851954390566	0.91489361702128
864	1681383	300.875027847778	0.93617021276596
864	1681781	301.006815250386	0.91666666666667
864	1682052	301.031744707598	0.9375
864	1703341	304.754618974904	0.91836734693878
864	1703613	304.775452432116	0.93877551020408
864	1709055	305.534924299514	0.92
864	1709295	305.556077756726	0.94
864	1713554	306.547068427652	0.92156862745098
864	1713752	306.569501884864	0.94117647058824
864	1720076	307.525717849007	0.92307692307692
864	1720426	307.556039306219	0.94230769230769
864	1781392	318.981281603486	0.92452830188679
864	1781651	319.006275060698	0.94339622641509
864	1789857	320.330345515489	0.92592592592593
864	1790539	320.371674972701	0.94444444444444
864	1814185	324.355940500301	0.92727272727273
864	1814442	324.376773957513	0.94545454545455
864	1839626	328.802285376459	0.92857142857143
864	1839910	328.827663500799	0.94642857142857
864	1843317	329.128136081237	0.92982456140351
864	1843518	329.149929538449	0.94736842105263
864	1849527	330.316891198783	0.93103448275862
864	1849759	330.339964655995	0.94827586206897
864	1850487	330.451157904681	0.93220338983051
864	1850853	330.473911361893	0.94915254237288
864	1858958	331.543074157172	0.93333333333333
864	1859207	331.564867614384	0.95
864	1887804	336.227307026066	0.9344262295082
864	1888358	336.260908483278	0.95081967213115
864	1890736	336.652862994309	0.93548387096774
864	1891146	336.684976451521	0.95161290322581
864	1891745	336.733383384842	0.93650793650794
864	1892055	336.755176842054	0.95238095238095
864	1892266	336.807665620875	0.9375
864	1892464	336.831059078087	0.953125
864	1899823	338.450038825046	0.93846153846154
864	1900184	338.484456282258	0.95384615384615
864	1933171	343.189409589646	0.93939393939394
864	1933413	343.211203046858	0.95454545454545
864	1943222	344.815643388157	0.94029850746269
864	1943371	344.827523673159	0.92647058823529
864	1943752	344.854693130371	0.94117647058824
864	1944023	344.881558006239	0.95588235294118
864	1969147	348.764708133403	0.94202898550725
864	1969550	348.795541590615	0.95652173913043
864	1971129	349.163815838697	0.94285714285714
864	1971720	349.199849295909	0.95714285714286
864	1979054	350.374038031249	0.94366197183099
864	1979261	350.397751488461	0.95774647887324
864	1979367	350.408575657544	0.94444444444444
864	1979565	350.428769114756	0.95833333333333
864	1979731	350.492344538315	0.94520547945205
864	1979928	350.512217995527	0.95890410958904
864	2023892	358.174517751196	0.94594594594595
864	2024282	358.213975208408	0.95945945945946
864	2024996	358.304339871089	0.94666666666667
864	2025192	358.325173328301	0.96
864	2026560	358.839325366866	0.94736842105263
864	2026758	358.861118824078	0.96052631578947
864	2027970	359.014409550718	0.94805194805195
864	2028171	359.03620300793	0.96103896103896
864	2053735	362.855083137561	0.94871794871795
864	2053946	362.877196594773	0.96153846153846
864	2067871	365.614028313862	0.94936708860759
864	2068069	365.635501771074	0.9620253164557
864	2078790	367.381425663979	0.95
864	2079268	367.403859121191	0.9625
864	2101724	371.26225170313	0.95061728395062
864	2102161	371.284365160342	0.96296296296296
864	2102672	371.486493359567	0.95121951219512
864	2102884	371.508606816779	0.96341463414634
864	2143540	378.153125210199	0.95180722891566
864	2144409	378.203894667411	0.96385542168675
864	2146337	378.552186125699	0.95238095238095
864	2146537	378.573659582911	0.96428571428571
864	2151146	379.308593137491	0.95294117647059
864	2151344	379.329106594703	0.96470588235294
864	2156273	380.203424150376	0.95348837209302
864	2156646	380.227137607588	0.96511627906977
864	2158990	380.643887848974	0.95402298850575
864	2159235	380.665361306186	0.96551724137931
864	2195340	386.399556871639	0.95454545454545
864	2196036	386.427830328851	0.96590909090909
864	2199625	387.105376086196	0.95505617977528
864	2199823	387.129089543408	0.96629213483146
864	2217600	390.138406995791	0.95555555555556
864	2218208	390.177080453003	0.96666666666667
864	2246200	394.455721470498	0.95604395604396
864	2246791	394.48239492771	0.96703296703297
864	2247099	394.51934119402	0.95652173913043
864	2247349	394.542094651232	0.96739130434783
864	2255228	395.702077700033	0.95698924731183
864	2255426	395.725151157245	0.96774193548387
864	2261880	397.126390580037	0.95744680851064
864	2262080	397.147224037249	0.96808510638298
864	2264637	397.444151405758	0.95789473684211
864	2268966	397.961539667285	0.94791666666667
864	2269389	397.983973124497	0.95833333333333
864	2274252	398.861412434583	0.94845360824742
864	2274815	398.892325891795	0.95876288659794
864	2284326	400.44789101515	0.94897959183673
864	2284527	400.470004472362	0.95918367346939
864	2298588	402.801827608774	0.94949494949495
864	2298881	402.827221065986	0.95959595959596
864	2299448	402.93359176981	0.95
864	2299650	402.956025227022	0.96
