file 1717715 1471956290                                         
version 2
run CSMA-5-20160823-12:41:17-14486
attr beaconInterval 10s
attr configname CSMA
attr datetime 20160823-12:41:17
attr experiment CSMA
attr inifile simulations/omnetpp.ini
attr iterationvars "$packetLength=76B, $sendInt=1.1, $beaconInterval=10s, $0=10s/2, $1=3 * 10s"
attr iterationvars2 "$packetLength=76B, $sendInt=1.1, $beaconInterval=10s, $0=10s/2, $1=3 * 10s, $repetition=0"
attr measurement "$packetLength=76B, $sendInt=1.1, $beaconInterval=10s, $0=10s/2, $1=3 * 10s"
attr network multi_gateway.Net802154MultiGateway
attr packetLength 76B
attr processid 14486
attr repetition 0
attr replication #0
attr resultdir ../results
attr runnumber 5
attr seedset 0
attr sendInt 1.1
param **.configurator.addStaticRoutes false
param **.dumpRoutes false
param **.dumpTopology false
param **.host[*].**.gpsr.beaconInterval "${beaconInterval = 10s}"
param **.host[*].**.gpsr.maxJitter ${$beaconInterval/2}
param **.host[*].**.gpsr.neighborValidityInterval "${3 * $beaconInterval}"
param **.host[*].**.gpsr.positionByteLength "2 B"
param **.host[*].**.gpsr.routingStrategy "\"StraightestPath\""
param **.host[*].**.trafficgen.continueSendingDummyPackets true
param **.host[*].**.trafficgen.coolDownDuration 15s
param **.host[*].**.trafficgen.destAddresses "\"host[0].wrappedHost(modulepath)\""
param **.host[*].**.trafficgen.packetLength "${packetLength = 76B}"
param **.host[*].**.trafficgen.sendInterval "exponential(${sendInt=0.1..2.5 step 0.2}s)"
param **.host[*].**.trafficgen.warmUpDuration 160s
param **.host[*].**.wlan[*].mac.queueLength 30
param **.host[*].**.wlan[*].macType "\"Ieee802154NarrowbandMac\""
param **.host[*].**.wlan[*].radio.receiver.minInterferencePower "-100 dBm"
param **.host[*].hostType "\"SimpleHost\""
param **.host[*].mobilityType "\"StaticConcentricWrappingMobility\""
param **.host[0].**.trafficgen.numPackets 0
param **.host[1..].**.trafficgen.numPackets 100
param **.numHosts 62
param **.radioMedium.rangeFilter "\"interferenceRange\""
param **.routingTable.addressType "\"modulepath\""
param **.routingTableType "\"GenericRoutingTable\""

vector 9  Net802154MultiGateway.host[0].wrappedHost.trafficgen  sentDummyPk:vector(packetBytes)  ETV
attr interpolationmode  none
attr source  sentDummyPk
attr title  "dummy packets sent, vector(packetBytes)"
vector 23  Net802154MultiGateway.host[1].wrappedHost.trafficgen  sentDummyPk:vector(packetBytes)  ETV
attr interpolationmode  none
attr source  sentDummyPk
attr title  "dummy packets sent, vector(packetBytes)"
vector 37  Net802154MultiGateway.host[2].wrappedHost.trafficgen  sentDummyPk:vector(packetBytes)  ETV
attr interpolationmode  none
attr source  sentDummyPk
attr title  "dummy packets sent, vector(packetBytes)"
vector 51  Net802154MultiGateway.host[3].wrappedHost.trafficgen  sentDummyPk:vector(packetBytes)  ETV
attr interpolationmode  none
attr source  sentDummyPk
attr title  "dummy packets sent, vector(packetBytes)"
vector 65  Net802154MultiGateway.host[4].wrappedHost.trafficgen  sentDummyPk:vector(packetBytes)  ETV
attr interpolationmode  none
attr source  sentDummyPk
attr title  "dummy packets sent, vector(packetBytes)"
vector 79  Net802154MultiGateway.host[5].wrappedHost.trafficgen  sentDummyPk:vector(packetBytes)  ETV
attr interpolationmode  none
attr source  sentDummyPk
attr title  "dummy packets sent, vector(packetBytes)"
vector 93  Net802154MultiGateway.host[6].wrappedHost.trafficgen  sentDummyPk:vector(packetBytes)  ETV
attr interpolationmode  none
attr source  sentDummyPk
attr title  "dummy packets sent, vector(packetBytes)"
vector 107  Net802154MultiGateway.host[7].wrappedHost.trafficgen  sentDummyPk:vector(packetBytes)  ETV
attr interpolationmode  none
attr source  sentDummyPk
attr title  "dummy packets sent, vector(packetBytes)"
vector 121  Net802154MultiGateway.host[8].wrappedHost.trafficgen  sentDummyPk:vector(packetBytes)  ETV
attr interpolationmode  none
attr source  sentDummyPk
attr title  "dummy packets sent, vector(packetBytes)"
vector 135  Net802154MultiGateway.host[9].wrappedHost.trafficgen  sentDummyPk:vector(packetBytes)  ETV
attr interpolationmode  none
attr source  sentDummyPk
attr title  "dummy packets sent, vector(packetBytes)"
vector 149  Net802154MultiGateway.host[10].wrappedHost.trafficgen  sentDummyPk:vector(packetBytes)  ETV
attr interpolationmode  none
attr source  sentDummyPk
attr title  "dummy packets sent, vector(packetBytes)"
vector 163  Net802154MultiGateway.host[11].wrappedHost.trafficgen  sentDummyPk:vector(packetBytes)  ETV
attr interpolationmode  none
attr source  sentDummyPk
attr title  "dummy packets sent, vector(packetBytes)"
vector 177  Net802154MultiGateway.host[12].wrappedHost.trafficgen  sentDummyPk:vector(packetBytes)  ETV
attr interpolationmode  none
attr source  sentDummyPk
attr title  "dummy packets sent, vector(packetBytes)"
vector 191  Net802154MultiGateway.host[13].wrappedHost.trafficgen  sentDummyPk:vector(packetBytes)  ETV
attr interpolationmode  none
attr source  sentDummyPk
attr title  "dummy packets sent, vector(packetBytes)"
vector 205  Net802154MultiGateway.host[14].wrappedHost.trafficgen  sentDummyPk:vector(packetBytes)  ETV
attr interpolationmode  none
attr source  sentDummyPk
attr title  "dummy packets sent, vector(packetBytes)"
vector 219  Net802154MultiGateway.host[15].wrappedHost.trafficgen  sentDummyPk:vector(packetBytes)  ETV
attr interpolationmode  none
attr source  sentDummyPk
attr title  "dummy packets sent, vector(packetBytes)"
vector 233  Net802154MultiGateway.host[16].wrappedHost.trafficgen  sentDummyPk:vector(packetBytes)  ETV
attr interpolationmode  none
attr source  sentDummyPk
attr title  "dummy packets sent, vector(packetBytes)"
vector 247  Net802154MultiGateway.host[17].wrappedHost.trafficgen  sentDummyPk:vector(packetBytes)  ETV
attr interpolationmode  none
attr source  sentDummyPk
attr title  "dummy packets sent, vector(packetBytes)"
vector 261  Net802154MultiGateway.host[18].wrappedHost.trafficgen  sentDummyPk:vector(packetBytes)  ETV
attr interpolationmode  none
attr source  sentDummyPk
attr title  "dummy packets sent, vector(packetBytes)"
vector 275  Net802154MultiGateway.host[19].wrappedHost.trafficgen  sentDummyPk:vector(packetBytes)  ETV
attr interpolationmode  none
attr source  sentDummyPk
attr title  "dummy packets sent, vector(packetBytes)"
vector 289  Net802154MultiGateway.host[20].wrappedHost.trafficgen  sentDummyPk:vector(packetBytes)  ETV
attr interpolationmode  none
attr source  sentDummyPk
attr title  "dummy packets sent, vector(packetBytes)"
vector 303  Net802154MultiGateway.host[21].wrappedHost.trafficgen  sentDummyPk:vector(packetBytes)  ETV
attr interpolationmode  none
attr source  sentDummyPk
attr title  "dummy packets sent, vector(packetBytes)"
vector 317  Net802154MultiGateway.host[22].wrappedHost.trafficgen  sentDummyPk:vector(packetBytes)  ETV
attr interpolationmode  none
attr source  sentDummyPk
attr title  "dummy packets sent, vector(packetBytes)"
vector 331  Net802154MultiGateway.host[23].wrappedHost.trafficgen  sentDummyPk:vector(packetBytes)  ETV
attr interpolationmode  none
attr source  sentDummyPk
attr title  "dummy packets sent, vector(packetBytes)"
vector 345  Net802154MultiGateway.host[24].wrappedHost.trafficgen  sentDummyPk:vector(packetBytes)  ETV
attr interpolationmode  none
attr source  sentDummyPk
attr title  "dummy packets sent, vector(packetBytes)"
vector 359  Net802154MultiGateway.host[25].wrappedHost.trafficgen  sentDummyPk:vector(packetBytes)  ETV
attr interpolationmode  none
attr source  sentDummyPk
attr title  "dummy packets sent, vector(packetBytes)"
vector 373  Net802154MultiGateway.host[26].wrappedHost.trafficgen  sentDummyPk:vector(packetBytes)  ETV
attr interpolationmode  none
attr source  sentDummyPk
attr title  "dummy packets sent, vector(packetBytes)"
vector 387  Net802154MultiGateway.host[27].wrappedHost.trafficgen  sentDummyPk:vector(packetBytes)  ETV
attr interpolationmode  none
attr source  sentDummyPk
attr title  "dummy packets sent, vector(packetBytes)"
vector 401  Net802154MultiGateway.host[28].wrappedHost.trafficgen  sentDummyPk:vector(packetBytes)  ETV
attr interpolationmode  none
attr source  sentDummyPk
attr title  "dummy packets sent, vector(packetBytes)"
vector 415  Net802154MultiGateway.host[29].wrappedHost.trafficgen  sentDummyPk:vector(packetBytes)  ETV
attr interpolationmode  none
attr source  sentDummyPk
attr title  "dummy packets sent, vector(packetBytes)"
vector 429  Net802154MultiGateway.host[30].wrappedHost.trafficgen  sentDummyPk:vector(packetBytes)  ETV
attr interpolationmode  none
attr source  sentDummyPk
attr title  "dummy packets sent, vector(packetBytes)"
vector 443  Net802154MultiGateway.host[31].wrappedHost.trafficgen  sentDummyPk:vector(packetBytes)  ETV
attr interpolationmode  none
attr source  sentDummyPk
attr title  "dummy packets sent, vector(packetBytes)"
vector 457  Net802154MultiGateway.host[32].wrappedHost.trafficgen  sentDummyPk:vector(packetBytes)  ETV
attr interpolationmode  none
attr source  sentDummyPk
attr title  "dummy packets sent, vector(packetBytes)"
vector 471  Net802154MultiGateway.host[33].wrappedHost.trafficgen  sentDummyPk:vector(packetBytes)  ETV
attr interpolationmode  none
attr source  sentDummyPk
attr title  "dummy packets sent, vector(packetBytes)"
vector 485  Net802154MultiGateway.host[34].wrappedHost.trafficgen  sentDummyPk:vector(packetBytes)  ETV
attr interpolationmode  none
attr source  sentDummyPk
attr title  "dummy packets sent, vector(packetBytes)"
vector 499  Net802154MultiGateway.host[35].wrappedHost.trafficgen  sentDummyPk:vector(packetBytes)  ETV
attr interpolationmode  none
attr source  sentDummyPk
attr title  "dummy packets sent, vector(packetBytes)"
vector 513  Net802154MultiGateway.host[36].wrappedHost.trafficgen  sentDummyPk:vector(packetBytes)  ETV
attr interpolationmode  none
attr source  sentDummyPk
attr title  "dummy packets sent, vector(packetBytes)"
vector 527  Net802154MultiGateway.host[37].wrappedHost.trafficgen  sentDummyPk:vector(packetBytes)  ETV
attr interpolationmode  none
attr source  sentDummyPk
attr title  "dummy packets sent, vector(packetBytes)"
vector 541  Net802154MultiGateway.host[38].wrappedHost.trafficgen  sentDummyPk:vector(packetBytes)  ETV
attr interpolationmode  none
attr source  sentDummyPk
attr title  "dummy packets sent, vector(packetBytes)"
vector 555  Net802154MultiGateway.host[39].wrappedHost.trafficgen  sentDummyPk:vector(packetBytes)  ETV
attr interpolationmode  none
attr source  sentDummyPk
attr title  "dummy packets sent, vector(packetBytes)"
vector 569  Net802154MultiGateway.host[40].wrappedHost.trafficgen  sentDummyPk:vector(packetBytes)  ETV
attr interpolationmode  none
attr source  sentDummyPk
attr title  "dummy packets sent, vector(packetBytes)"
vector 583  Net802154MultiGateway.host[41].wrappedHost.trafficgen  sentDummyPk:vector(packetBytes)  ETV
attr interpolationmode  none
attr source  sentDummyPk
attr title  "dummy packets sent, vector(packetBytes)"
vector 597  Net802154MultiGateway.host[42].wrappedHost.trafficgen  sentDummyPk:vector(packetBytes)  ETV
attr interpolationmode  none
attr source  sentDummyPk
attr title  "dummy packets sent, vector(packetBytes)"
vector 611  Net802154MultiGateway.host[43].wrappedHost.trafficgen  sentDummyPk:vector(packetBytes)  ETV
attr interpolationmode  none
attr source  sentDummyPk
attr title  "dummy packets sent, vector(packetBytes)"
vector 625  Net802154MultiGateway.host[44].wrappedHost.trafficgen  sentDummyPk:vector(packetBytes)  ETV
attr interpolationmode  none
attr source  sentDummyPk
attr title  "dummy packets sent, vector(packetBytes)"
vector 639  Net802154MultiGateway.host[45].wrappedHost.trafficgen  sentDummyPk:vector(packetBytes)  ETV
attr interpolationmode  none
attr source  sentDummyPk
attr title  "dummy packets sent, vector(packetBytes)"
vector 653  Net802154MultiGateway.host[46].wrappedHost.trafficgen  sentDummyPk:vector(packetBytes)  ETV
attr interpolationmode  none
attr source  sentDummyPk
attr title  "dummy packets sent, vector(packetBytes)"
vector 667  Net802154MultiGateway.host[47].wrappedHost.trafficgen  sentDummyPk:vector(packetBytes)  ETV
attr interpolationmode  none
attr source  sentDummyPk
attr title  "dummy packets sent, vector(packetBytes)"
vector 681  Net802154MultiGateway.host[48].wrappedHost.trafficgen  sentDummyPk:vector(packetBytes)  ETV
attr interpolationmode  none
attr source  sentDummyPk
attr title  "dummy packets sent, vector(packetBytes)"
vector 695  Net802154MultiGateway.host[49].wrappedHost.trafficgen  sentDummyPk:vector(packetBytes)  ETV
attr interpolationmode  none
attr source  sentDummyPk
attr title  "dummy packets sent, vector(packetBytes)"
vector 709  Net802154MultiGateway.host[50].wrappedHost.trafficgen  sentDummyPk:vector(packetBytes)  ETV
attr interpolationmode  none
attr source  sentDummyPk
attr title  "dummy packets sent, vector(packetBytes)"
vector 723  Net802154MultiGateway.host[51].wrappedHost.trafficgen  sentDummyPk:vector(packetBytes)  ETV
attr interpolationmode  none
attr source  sentDummyPk
attr title  "dummy packets sent, vector(packetBytes)"
vector 737  Net802154MultiGateway.host[52].wrappedHost.trafficgen  sentDummyPk:vector(packetBytes)  ETV
attr interpolationmode  none
attr source  sentDummyPk
attr title  "dummy packets sent, vector(packetBytes)"
vector 751  Net802154MultiGateway.host[53].wrappedHost.trafficgen  sentDummyPk:vector(packetBytes)  ETV
attr interpolationmode  none
attr source  sentDummyPk
attr title  "dummy packets sent, vector(packetBytes)"
vector 765  Net802154MultiGateway.host[54].wrappedHost.trafficgen  sentDummyPk:vector(packetBytes)  ETV
attr interpolationmode  none
attr source  sentDummyPk
attr title  "dummy packets sent, vector(packetBytes)"
vector 779  Net802154MultiGateway.host[55].wrappedHost.trafficgen  sentDummyPk:vector(packetBytes)  ETV
attr interpolationmode  none
attr source  sentDummyPk
attr title  "dummy packets sent, vector(packetBytes)"
vector 793  Net802154MultiGateway.host[56].wrappedHost.trafficgen  sentDummyPk:vector(packetBytes)  ETV
attr interpolationmode  none
attr source  sentDummyPk
attr title  "dummy packets sent, vector(packetBytes)"
vector 807  Net802154MultiGateway.host[57].wrappedHost.trafficgen  sentDummyPk:vector(packetBytes)  ETV
attr interpolationmode  none
attr source  sentDummyPk
attr title  "dummy packets sent, vector(packetBytes)"
vector 821  Net802154MultiGateway.host[58].wrappedHost.trafficgen  sentDummyPk:vector(packetBytes)  ETV
attr interpolationmode  none
attr source  sentDummyPk
attr title  "dummy packets sent, vector(packetBytes)"
vector 835  Net802154MultiGateway.host[59].wrappedHost.trafficgen  sentDummyPk:vector(packetBytes)  ETV
attr interpolationmode  none
attr source  sentDummyPk
attr title  "dummy packets sent, vector(packetBytes)"
vector 849  Net802154MultiGateway.host[60].wrappedHost.trafficgen  sentDummyPk:vector(packetBytes)  ETV
attr interpolationmode  none
attr source  sentDummyPk
attr title  "dummy packets sent, vector(packetBytes)"
vector 863  Net802154MultiGateway.host[61].wrappedHost.trafficgen  sentDummyPk:vector(packetBytes)  ETV
attr interpolationmode  none
attr source  sentDummyPk
attr title  "dummy packets sent, vector(packetBytes)"
vector 202  Net802154MultiGateway.host[14].wrappedHost.trafficgen  sentPk:vector(packetBytes)  ETV
attr interpolationmode  none
attr source  sentPk
attr title  "packets sent, vector(packetBytes)"
vector 206  Net802154MultiGateway.host[14].wrappedHost.trafficgen  PRR:vector  ETV
attr interpolationmode  none
attr source  count(sinkRcvdPk)/count(sentPk)
attr title  "PRR, vector"
vector 204  Net802154MultiGateway.host[14].wrappedHost.trafficgen  sinkRcvdPk:vector(packetBytes)  ETV
attr interpolationmode  none
attr source  sinkRcvdPk
attr title  "own packets received by sink, vector(packetBytes)"
vector 5  Net802154MultiGateway.host[0].wrappedHost.trafficgen  rcvdPk:vector(packetBytes)  ETV
attr interpolationmode  none
attr source  rcvdPk
attr title  "packets received, vector(packetBytes)"
vector 7  Net802154MultiGateway.host[0].wrappedHost.trafficgen  endToEndDelay:vector  ETV
attr interpolationmode  none
attr source  messageAge(rcvdPk)
attr title  "end-to-end delay, vector"
attr unit  s
vector 62  Net802154MultiGateway.host[4].wrappedHost.trafficgen  sentPk:vector(packetBytes)  ETV
attr interpolationmode  none
attr source  sentPk
attr title  "packets sent, vector(packetBytes)"
vector 66  Net802154MultiGateway.host[4].wrappedHost.trafficgen  PRR:vector  ETV
attr interpolationmode  none
attr source  count(sinkRcvdPk)/count(sentPk)
attr title  "PRR, vector"
vector 64  Net802154MultiGateway.host[4].wrappedHost.trafficgen  sinkRcvdPk:vector(packetBytes)  ETV
attr interpolationmode  none
attr source  sinkRcvdPk
attr title  "own packets received by sink, vector(packetBytes)"
vector 552  Net802154MultiGateway.host[39].wrappedHost.trafficgen  sentPk:vector(packetBytes)  ETV
attr interpolationmode  none
attr source  sentPk
attr title  "packets sent, vector(packetBytes)"
vector 556  Net802154MultiGateway.host[39].wrappedHost.trafficgen  PRR:vector  ETV
attr interpolationmode  none
attr source  count(sinkRcvdPk)/count(sentPk)
attr title  "PRR, vector"
vector 580  Net802154MultiGateway.host[41].wrappedHost.trafficgen  sentPk:vector(packetBytes)  ETV
attr interpolationmode  none
attr source  sentPk
attr title  "packets sent, vector(packetBytes)"
vector 584  Net802154MultiGateway.host[41].wrappedHost.trafficgen  PRR:vector  ETV
attr interpolationmode  none
attr source  count(sinkRcvdPk)/count(sentPk)
attr title  "PRR, vector"
vector 554  Net802154MultiGateway.host[39].wrappedHost.trafficgen  sinkRcvdPk:vector(packetBytes)  ETV
attr interpolationmode  none
attr source  sinkRcvdPk
attr title  "own packets received by sink, vector(packetBytes)"
vector 582  Net802154MultiGateway.host[41].wrappedHost.trafficgen  sinkRcvdPk:vector(packetBytes)  ETV
attr interpolationmode  none
attr source  sinkRcvdPk
attr title  "own packets received by sink, vector(packetBytes)"
vector 188  Net802154MultiGateway.host[13].wrappedHost.trafficgen  sentPk:vector(packetBytes)  ETV
attr interpolationmode  none
attr source  sentPk
attr title  "packets sent, vector(packetBytes)"
vector 192  Net802154MultiGateway.host[13].wrappedHost.trafficgen  PRR:vector  ETV
attr interpolationmode  none
attr source  count(sinkRcvdPk)/count(sentPk)
attr title  "PRR, vector"
vector 190  Net802154MultiGateway.host[13].wrappedHost.trafficgen  sinkRcvdPk:vector(packetBytes)  ETV
attr interpolationmode  none
attr source  sinkRcvdPk
attr title  "own packets received by sink, vector(packetBytes)"
vector 734  Net802154MultiGateway.host[52].wrappedHost.trafficgen  sentPk:vector(packetBytes)  ETV
attr interpolationmode  none
attr source  sentPk
attr title  "packets sent, vector(packetBytes)"
vector 738  Net802154MultiGateway.host[52].wrappedHost.trafficgen  PRR:vector  ETV
attr interpolationmode  none
attr source  count(sinkRcvdPk)/count(sentPk)
attr title  "PRR, vector"
vector 622  Net802154MultiGateway.host[44].wrappedHost.trafficgen  sentPk:vector(packetBytes)  ETV
attr interpolationmode  none
attr source  sentPk
attr title  "packets sent, vector(packetBytes)"
vector 626  Net802154MultiGateway.host[44].wrappedHost.trafficgen  PRR:vector  ETV
attr interpolationmode  none
attr source  count(sinkRcvdPk)/count(sentPk)
attr title  "PRR, vector"
vector 342  Net802154MultiGateway.host[24].wrappedHost.trafficgen  sentPk:vector(packetBytes)  ETV
attr interpolationmode  none
attr source  sentPk
attr title  "packets sent, vector(packetBytes)"
vector 346  Net802154MultiGateway.host[24].wrappedHost.trafficgen  PRR:vector  ETV
attr interpolationmode  none
attr source  count(sinkRcvdPk)/count(sentPk)
attr title  "PRR, vector"
vector 594  Net802154MultiGateway.host[42].wrappedHost.trafficgen  sentPk:vector(packetBytes)  ETV
attr interpolationmode  none
attr source  sentPk
attr title  "packets sent, vector(packetBytes)"
vector 598  Net802154MultiGateway.host[42].wrappedHost.trafficgen  PRR:vector  ETV
attr interpolationmode  none
attr source  count(sinkRcvdPk)/count(sentPk)
attr title  "PRR, vector"
vector 384  Net802154MultiGateway.host[27].wrappedHost.trafficgen  sentPk:vector(packetBytes)  ETV
attr interpolationmode  none
attr source  sentPk
attr title  "packets sent, vector(packetBytes)"
vector 388  Net802154MultiGateway.host[27].wrappedHost.trafficgen  PRR:vector  ETV
attr interpolationmode  none
attr source  count(sinkRcvdPk)/count(sentPk)
attr title  "PRR, vector"
vector 736  Net802154MultiGateway.host[52].wrappedHost.trafficgen  sinkRcvdPk:vector(packetBytes)  ETV
attr interpolationmode  none
attr source  sinkRcvdPk
attr title  "own packets received by sink, vector(packetBytes)"
vector 386  Net802154MultiGateway.host[27].wrappedHost.trafficgen  sinkRcvdPk:vector(packetBytes)  ETV
attr interpolationmode  none
attr source  sinkRcvdPk
attr title  "own packets received by sink, vector(packetBytes)"
vector 344  Net802154MultiGateway.host[24].wrappedHost.trafficgen  sinkRcvdPk:vector(packetBytes)  ETV
attr interpolationmode  none
attr source  sinkRcvdPk
attr title  "own packets received by sink, vector(packetBytes)"
vector 624  Net802154MultiGateway.host[44].wrappedHost.trafficgen  sinkRcvdPk:vector(packetBytes)  ETV
attr interpolationmode  none
attr source  sinkRcvdPk
attr title  "own packets received by sink, vector(packetBytes)"
vector 230  Net802154MultiGateway.host[16].wrappedHost.trafficgen  sentPk:vector(packetBytes)  ETV
attr interpolationmode  none
attr source  sentPk
attr title  "packets sent, vector(packetBytes)"
vector 234  Net802154MultiGateway.host[16].wrappedHost.trafficgen  PRR:vector  ETV
attr interpolationmode  none
attr source  count(sinkRcvdPk)/count(sentPk)
attr title  "PRR, vector"
vector 596  Net802154MultiGateway.host[42].wrappedHost.trafficgen  sinkRcvdPk:vector(packetBytes)  ETV
attr interpolationmode  none
attr source  sinkRcvdPk
attr title  "own packets received by sink, vector(packetBytes)"
vector 232  Net802154MultiGateway.host[16].wrappedHost.trafficgen  sinkRcvdPk:vector(packetBytes)  ETV
attr interpolationmode  none
attr source  sinkRcvdPk
attr title  "own packets received by sink, vector(packetBytes)"
vector 174  Net802154MultiGateway.host[12].wrappedHost.trafficgen  sentPk:vector(packetBytes)  ETV
attr interpolationmode  none
attr source  sentPk
attr title  "packets sent, vector(packetBytes)"
vector 178  Net802154MultiGateway.host[12].wrappedHost.trafficgen  PRR:vector  ETV
attr interpolationmode  none
attr source  count(sinkRcvdPk)/count(sentPk)
attr title  "PRR, vector"
vector 176  Net802154MultiGateway.host[12].wrappedHost.trafficgen  sinkRcvdPk:vector(packetBytes)  ETV
attr interpolationmode  none
attr source  sinkRcvdPk
attr title  "own packets received by sink, vector(packetBytes)"
vector 720  Net802154MultiGateway.host[51].wrappedHost.trafficgen  sentPk:vector(packetBytes)  ETV
attr interpolationmode  none
attr source  sentPk
attr title  "packets sent, vector(packetBytes)"
vector 724  Net802154MultiGateway.host[51].wrappedHost.trafficgen  PRR:vector  ETV
attr interpolationmode  none
attr source  count(sinkRcvdPk)/count(sentPk)
attr title  "PRR, vector"
vector 160  Net802154MultiGateway.host[11].wrappedHost.trafficgen  sentPk:vector(packetBytes)  ETV
attr interpolationmode  none
attr source  sentPk
attr title  "packets sent, vector(packetBytes)"
vector 164  Net802154MultiGateway.host[11].wrappedHost.trafficgen  PRR:vector  ETV
attr interpolationmode  none
attr source  count(sinkRcvdPk)/count(sentPk)
attr title  "PRR, vector"
vector 722  Net802154MultiGateway.host[51].wrappedHost.trafficgen  sinkRcvdPk:vector(packetBytes)  ETV
attr interpolationmode  none
attr source  sinkRcvdPk
attr title  "own packets received by sink, vector(packetBytes)"
vector 314  Net802154MultiGateway.host[22].wrappedHost.trafficgen  sentPk:vector(packetBytes)  ETV
attr interpolationmode  none
attr source  sentPk
attr title  "packets sent, vector(packetBytes)"
vector 318  Net802154MultiGateway.host[22].wrappedHost.trafficgen  PRR:vector  ETV
attr interpolationmode  none
attr source  count(sinkRcvdPk)/count(sentPk)
attr title  "PRR, vector"
vector 678  Net802154MultiGateway.host[48].wrappedHost.trafficgen  sentPk:vector(packetBytes)  ETV
attr interpolationmode  none
attr source  sentPk
attr title  "packets sent, vector(packetBytes)"
vector 682  Net802154MultiGateway.host[48].wrappedHost.trafficgen  PRR:vector  ETV
attr interpolationmode  none
attr source  count(sinkRcvdPk)/count(sentPk)
attr title  "PRR, vector"
vector 162  Net802154MultiGateway.host[11].wrappedHost.trafficgen  sinkRcvdPk:vector(packetBytes)  ETV
attr interpolationmode  none
attr source  sinkRcvdPk
attr title  "own packets received by sink, vector(packetBytes)"
vector 680  Net802154MultiGateway.host[48].wrappedHost.trafficgen  sinkRcvdPk:vector(packetBytes)  ETV
attr interpolationmode  none
attr source  sinkRcvdPk
attr title  "own packets received by sink, vector(packetBytes)"
vector 316  Net802154MultiGateway.host[22].wrappedHost.trafficgen  sinkRcvdPk:vector(packetBytes)  ETV
attr interpolationmode  none
attr source  sinkRcvdPk
attr title  "own packets received by sink, vector(packetBytes)"
vector 440  Net802154MultiGateway.host[31].wrappedHost.trafficgen  sentPk:vector(packetBytes)  ETV
attr interpolationmode  none
attr source  sentPk
attr title  "packets sent, vector(packetBytes)"
vector 444  Net802154MultiGateway.host[31].wrappedHost.trafficgen  PRR:vector  ETV
attr interpolationmode  none
attr source  count(sinkRcvdPk)/count(sentPk)
attr title  "PRR, vector"
vector 442  Net802154MultiGateway.host[31].wrappedHost.trafficgen  sinkRcvdPk:vector(packetBytes)  ETV
attr interpolationmode  none
attr source  sinkRcvdPk
attr title  "own packets received by sink, vector(packetBytes)"
vector 790  Net802154MultiGateway.host[56].wrappedHost.trafficgen  sentPk:vector(packetBytes)  ETV
attr interpolationmode  none
attr source  sentPk
attr title  "packets sent, vector(packetBytes)"
vector 794  Net802154MultiGateway.host[56].wrappedHost.trafficgen  PRR:vector  ETV
attr interpolationmode  none
attr source  count(sinkRcvdPk)/count(sentPk)
attr title  "PRR, vector"
vector 258  Net802154MultiGateway.host[18].wrappedHost.trafficgen  sentPk:vector(packetBytes)  ETV
attr interpolationmode  none
attr source  sentPk
attr title  "packets sent, vector(packetBytes)"
vector 262  Net802154MultiGateway.host[18].wrappedHost.trafficgen  PRR:vector  ETV
attr interpolationmode  none
attr source  count(sinkRcvdPk)/count(sentPk)
attr title  "PRR, vector"
vector 792  Net802154MultiGateway.host[56].wrappedHost.trafficgen  sinkRcvdPk:vector(packetBytes)  ETV
attr interpolationmode  none
attr source  sinkRcvdPk
attr title  "own packets received by sink, vector(packetBytes)"
vector 260  Net802154MultiGateway.host[18].wrappedHost.trafficgen  sinkRcvdPk:vector(packetBytes)  ETV
attr interpolationmode  none
attr source  sinkRcvdPk
attr title  "own packets received by sink, vector(packetBytes)"
vector 328  Net802154MultiGateway.host[23].wrappedHost.trafficgen  sentPk:vector(packetBytes)  ETV
attr interpolationmode  none
attr source  sentPk
attr title  "packets sent, vector(packetBytes)"
vector 332  Net802154MultiGateway.host[23].wrappedHost.trafficgen  PRR:vector  ETV
attr interpolationmode  none
attr source  count(sinkRcvdPk)/count(sentPk)
attr title  "PRR, vector"
vector 34  Net802154MultiGateway.host[2].wrappedHost.trafficgen  sentPk:vector(packetBytes)  ETV
attr interpolationmode  none
attr source  sentPk
attr title  "packets sent, vector(packetBytes)"
vector 38  Net802154MultiGateway.host[2].wrappedHost.trafficgen  PRR:vector  ETV
attr interpolationmode  none
attr source  count(sinkRcvdPk)/count(sentPk)
attr title  "PRR, vector"
vector 36  Net802154MultiGateway.host[2].wrappedHost.trafficgen  sinkRcvdPk:vector(packetBytes)  ETV
attr interpolationmode  none
attr source  sinkRcvdPk
attr title  "own packets received by sink, vector(packetBytes)"
vector 146  Net802154MultiGateway.host[10].wrappedHost.trafficgen  sentPk:vector(packetBytes)  ETV
attr interpolationmode  none
attr source  sentPk
attr title  "packets sent, vector(packetBytes)"
vector 150  Net802154MultiGateway.host[10].wrappedHost.trafficgen  PRR:vector  ETV
attr interpolationmode  none
attr source  count(sinkRcvdPk)/count(sentPk)
attr title  "PRR, vector"
vector 776  Net802154MultiGateway.host[55].wrappedHost.trafficgen  sentPk:vector(packetBytes)  ETV
attr interpolationmode  none
attr source  sentPk
attr title  "packets sent, vector(packetBytes)"
vector 780  Net802154MultiGateway.host[55].wrappedHost.trafficgen  PRR:vector  ETV
attr interpolationmode  none
attr source  count(sinkRcvdPk)/count(sentPk)
attr title  "PRR, vector"
vector 330  Net802154MultiGateway.host[23].wrappedHost.trafficgen  sinkRcvdPk:vector(packetBytes)  ETV
attr interpolationmode  none
attr source  sinkRcvdPk
attr title  "own packets received by sink, vector(packetBytes)"
vector 398  Net802154MultiGateway.host[28].wrappedHost.trafficgen  sentPk:vector(packetBytes)  ETV
attr interpolationmode  none
attr source  sentPk
attr title  "packets sent, vector(packetBytes)"
vector 402  Net802154MultiGateway.host[28].wrappedHost.trafficgen  PRR:vector  ETV
attr interpolationmode  none
attr source  count(sinkRcvdPk)/count(sentPk)
attr title  "PRR, vector"
vector 148  Net802154MultiGateway.host[10].wrappedHost.trafficgen  sinkRcvdPk:vector(packetBytes)  ETV
attr interpolationmode  none
attr source  sinkRcvdPk
attr title  "own packets received by sink, vector(packetBytes)"
vector 778  Net802154MultiGateway.host[55].wrappedHost.trafficgen  sinkRcvdPk:vector(packetBytes)  ETV
attr interpolationmode  none
attr source  sinkRcvdPk
attr title  "own packets received by sink, vector(packetBytes)"
vector 496  Net802154MultiGateway.host[35].wrappedHost.trafficgen  sentPk:vector(packetBytes)  ETV
attr interpolationmode  none
attr source  sentPk
attr title  "packets sent, vector(packetBytes)"
vector 500  Net802154MultiGateway.host[35].wrappedHost.trafficgen  PRR:vector  ETV
attr interpolationmode  none
attr source  count(sinkRcvdPk)/count(sentPk)
attr title  "PRR, vector"
vector 400  Net802154MultiGateway.host[28].wrappedHost.trafficgen  sinkRcvdPk:vector(packetBytes)  ETV
attr interpolationmode  none
attr source  sinkRcvdPk
attr title  "own packets received by sink, vector(packetBytes)"
vector 498  Net802154MultiGateway.host[35].wrappedHost.trafficgen  sinkRcvdPk:vector(packetBytes)  ETV
attr interpolationmode  none
attr source  sinkRcvdPk
attr title  "own packets received by sink, vector(packetBytes)"
vector 272  Net802154MultiGateway.host[19].wrappedHost.trafficgen  sentPk:vector(packetBytes)  ETV
attr interpolationmode  none
attr source  sentPk
attr title  "packets sent, vector(packetBytes)"
vector 276  Net802154MultiGateway.host[19].wrappedHost.trafficgen  PRR:vector  ETV
attr interpolationmode  none
attr source  count(sinkRcvdPk)/count(sentPk)
attr title  "PRR, vector"
vector 274  Net802154MultiGateway.host[19].wrappedHost.trafficgen  sinkRcvdPk:vector(packetBytes)  ETV
attr interpolationmode  none
attr source  sinkRcvdPk
attr title  "own packets received by sink, vector(packetBytes)"
vector 762  Net802154MultiGateway.host[54].wrappedHost.trafficgen  sentPk:vector(packetBytes)  ETV
attr interpolationmode  none
attr source  sentPk
attr title  "packets sent, vector(packetBytes)"
vector 766  Net802154MultiGateway.host[54].wrappedHost.trafficgen  PRR:vector  ETV
attr interpolationmode  none
attr source  count(sinkRcvdPk)/count(sentPk)
attr title  "PRR, vector"
vector 764  Net802154MultiGateway.host[54].wrappedHost.trafficgen  sinkRcvdPk:vector(packetBytes)  ETV
attr interpolationmode  none
attr source  sinkRcvdPk
attr title  "own packets received by sink, vector(packetBytes)"
vector 538  Net802154MultiGateway.host[38].wrappedHost.trafficgen  sentPk:vector(packetBytes)  ETV
attr interpolationmode  none
attr source  sentPk
attr title  "packets sent, vector(packetBytes)"
vector 542  Net802154MultiGateway.host[38].wrappedHost.trafficgen  PRR:vector  ETV
attr interpolationmode  none
attr source  count(sinkRcvdPk)/count(sentPk)
attr title  "PRR, vector"
vector 860  Net802154MultiGateway.host[61].wrappedHost.trafficgen  sentPk:vector(packetBytes)  ETV
attr interpolationmode  none
attr source  sentPk
attr title  "packets sent, vector(packetBytes)"
vector 864  Net802154MultiGateway.host[61].wrappedHost.trafficgen  PRR:vector  ETV
attr interpolationmode  none
attr source  count(sinkRcvdPk)/count(sentPk)
attr title  "PRR, vector"
vector 650  Net802154MultiGateway.host[46].wrappedHost.trafficgen  sentPk:vector(packetBytes)  ETV
attr interpolationmode  none
attr source  sentPk
attr title  "packets sent, vector(packetBytes)"
vector 654  Net802154MultiGateway.host[46].wrappedHost.trafficgen  PRR:vector  ETV
attr interpolationmode  none
attr source  count(sinkRcvdPk)/count(sentPk)
attr title  "PRR, vector"
vector 540  Net802154MultiGateway.host[38].wrappedHost.trafficgen  sinkRcvdPk:vector(packetBytes)  ETV
attr interpolationmode  none
attr source  sinkRcvdPk
attr title  "own packets received by sink, vector(packetBytes)"
vector 652  Net802154MultiGateway.host[46].wrappedHost.trafficgen  sinkRcvdPk:vector(packetBytes)  ETV
attr interpolationmode  none
attr source  sinkRcvdPk
attr title  "own packets received by sink, vector(packetBytes)"
vector 862  Net802154MultiGateway.host[61].wrappedHost.trafficgen  sinkRcvdPk:vector(packetBytes)  ETV
attr interpolationmode  none
attr source  sinkRcvdPk
attr title  "own packets received by sink, vector(packetBytes)"
vector 412  Net802154MultiGateway.host[29].wrappedHost.trafficgen  sentPk:vector(packetBytes)  ETV
attr interpolationmode  none
attr source  sentPk
attr title  "packets sent, vector(packetBytes)"
vector 416  Net802154MultiGateway.host[29].wrappedHost.trafficgen  PRR:vector  ETV
attr interpolationmode  none
attr source  count(sinkRcvdPk)/count(sentPk)
attr title  "PRR, vector"
vector 414  Net802154MultiGateway.host[29].wrappedHost.trafficgen  sinkRcvdPk:vector(packetBytes)  ETV
attr interpolationmode  none
attr source  sinkRcvdPk
attr title  "own packets received by sink, vector(packetBytes)"
vector 216  Net802154MultiGateway.host[15].wrappedHost.trafficgen  sentPk:vector(packetBytes)  ETV
attr interpolationmode  none
attr source  sentPk
attr title  "packets sent, vector(packetBytes)"
vector 220  Net802154MultiGateway.host[15].wrappedHost.trafficgen  PRR:vector  ETV
attr interpolationmode  none
attr source  count(sinkRcvdPk)/count(sentPk)
attr title  "PRR, vector"
vector 218  Net802154MultiGateway.host[15].wrappedHost.trafficgen  sinkRcvdPk:vector(packetBytes)  ETV
attr interpolationmode  none
attr source  sinkRcvdPk
attr title  "own packets received by sink, vector(packetBytes)"
vector 510  Net802154MultiGateway.host[36].wrappedHost.trafficgen  sentPk:vector(packetBytes)  ETV
attr interpolationmode  none
attr source  sentPk
attr title  "packets sent, vector(packetBytes)"
vector 514  Net802154MultiGateway.host[36].wrappedHost.trafficgen  PRR:vector  ETV
attr interpolationmode  none
attr source  count(sinkRcvdPk)/count(sentPk)
attr title  "PRR, vector"
vector 608  Net802154MultiGateway.host[43].wrappedHost.trafficgen  sentPk:vector(packetBytes)  ETV
attr interpolationmode  none
attr source  sentPk
attr title  "packets sent, vector(packetBytes)"
vector 612  Net802154MultiGateway.host[43].wrappedHost.trafficgen  PRR:vector  ETV
attr interpolationmode  none
attr source  count(sinkRcvdPk)/count(sentPk)
attr title  "PRR, vector"
vector 512  Net802154MultiGateway.host[36].wrappedHost.trafficgen  sinkRcvdPk:vector(packetBytes)  ETV
attr interpolationmode  none
attr source  sinkRcvdPk
attr title  "own packets received by sink, vector(packetBytes)"
vector 286  Net802154MultiGateway.host[20].wrappedHost.trafficgen  sentPk:vector(packetBytes)  ETV
attr interpolationmode  none
attr source  sentPk
attr title  "packets sent, vector(packetBytes)"
vector 290  Net802154MultiGateway.host[20].wrappedHost.trafficgen  PRR:vector  ETV
attr interpolationmode  none
attr source  count(sinkRcvdPk)/count(sentPk)
attr title  "PRR, vector"
vector 610  Net802154MultiGateway.host[43].wrappedHost.trafficgen  sinkRcvdPk:vector(packetBytes)  ETV
attr interpolationmode  none
attr source  sinkRcvdPk
attr title  "own packets received by sink, vector(packetBytes)"
vector 288  Net802154MultiGateway.host[20].wrappedHost.trafficgen  sinkRcvdPk:vector(packetBytes)  ETV
attr interpolationmode  none
attr source  sinkRcvdPk
attr title  "own packets received by sink, vector(packetBytes)"
vector 20  Net802154MultiGateway.host[1].wrappedHost.trafficgen  sentPk:vector(packetBytes)  ETV
attr interpolationmode  none
attr source  sentPk
attr title  "packets sent, vector(packetBytes)"
vector 24  Net802154MultiGateway.host[1].wrappedHost.trafficgen  PRR:vector  ETV
attr interpolationmode  none
attr source  count(sinkRcvdPk)/count(sentPk)
attr title  "PRR, vector"
vector 22  Net802154MultiGateway.host[1].wrappedHost.trafficgen  sinkRcvdPk:vector(packetBytes)  ETV
attr interpolationmode  none
attr source  sinkRcvdPk
attr title  "own packets received by sink, vector(packetBytes)"
vector 818  Net802154MultiGateway.host[58].wrappedHost.trafficgen  sentPk:vector(packetBytes)  ETV
attr interpolationmode  none
attr source  sentPk
attr title  "packets sent, vector(packetBytes)"
vector 822  Net802154MultiGateway.host[58].wrappedHost.trafficgen  PRR:vector  ETV
attr interpolationmode  none
attr source  count(sinkRcvdPk)/count(sentPk)
attr title  "PRR, vector"
vector 820  Net802154MultiGateway.host[58].wrappedHost.trafficgen  sinkRcvdPk:vector(packetBytes)  ETV
attr interpolationmode  none
attr source  sinkRcvdPk
attr title  "own packets received by sink, vector(packetBytes)"
vector 692  Net802154MultiGateway.host[49].wrappedHost.trafficgen  sentPk:vector(packetBytes)  ETV
attr interpolationmode  none
attr source  sentPk
attr title  "packets sent, vector(packetBytes)"
vector 696  Net802154MultiGateway.host[49].wrappedHost.trafficgen  PRR:vector  ETV
attr interpolationmode  none
attr source  count(sinkRcvdPk)/count(sentPk)
attr title  "PRR, vector"
vector 694  Net802154MultiGateway.host[49].wrappedHost.trafficgen  sinkRcvdPk:vector(packetBytes)  ETV
attr interpolationmode  none
attr source  sinkRcvdPk
attr title  "own packets received by sink, vector(packetBytes)"
vector 356  Net802154MultiGateway.host[25].wrappedHost.trafficgen  sentPk:vector(packetBytes)  ETV
attr interpolationmode  none
attr source  sentPk
attr title  "packets sent, vector(packetBytes)"
vector 360  Net802154MultiGateway.host[25].wrappedHost.trafficgen  PRR:vector  ETV
attr interpolationmode  none
attr source  count(sinkRcvdPk)/count(sentPk)
attr title  "PRR, vector"
vector 300  Net802154MultiGateway.host[21].wrappedHost.trafficgen  sentPk:vector(packetBytes)  ETV
attr interpolationmode  none
attr source  sentPk
attr title  "packets sent, vector(packetBytes)"
vector 304  Net802154MultiGateway.host[21].wrappedHost.trafficgen  PRR:vector  ETV
attr interpolationmode  none
attr source  count(sinkRcvdPk)/count(sentPk)
attr title  "PRR, vector"
vector 358  Net802154MultiGateway.host[25].wrappedHost.trafficgen  sinkRcvdPk:vector(packetBytes)  ETV
attr interpolationmode  none
attr source  sinkRcvdPk
attr title  "own packets received by sink, vector(packetBytes)"
vector 48  Net802154MultiGateway.host[3].wrappedHost.trafficgen  sentPk:vector(packetBytes)  ETV
attr interpolationmode  none
attr source  sentPk
attr title  "packets sent, vector(packetBytes)"
vector 52  Net802154MultiGateway.host[3].wrappedHost.trafficgen  PRR:vector  ETV
attr interpolationmode  none
attr source  count(sinkRcvdPk)/count(sentPk)
attr title  "PRR, vector"
vector 302  Net802154MultiGateway.host[21].wrappedHost.trafficgen  sinkRcvdPk:vector(packetBytes)  ETV
attr interpolationmode  none
attr source  sinkRcvdPk
attr title  "own packets received by sink, vector(packetBytes)"
vector 50  Net802154MultiGateway.host[3].wrappedHost.trafficgen  sinkRcvdPk:vector(packetBytes)  ETV
attr interpolationmode  none
attr source  sinkRcvdPk
attr title  "own packets received by sink, vector(packetBytes)"
vector 426  Net802154MultiGateway.host[30].wrappedHost.trafficgen  sentPk:vector(packetBytes)  ETV
attr interpolationmode  none
attr source  sentPk
attr title  "packets sent, vector(packetBytes)"
vector 430  Net802154MultiGateway.host[30].wrappedHost.trafficgen  PRR:vector  ETV
attr interpolationmode  none
attr source  count(sinkRcvdPk)/count(sentPk)
attr title  "PRR, vector"
vector 454  Net802154MultiGateway.host[32].wrappedHost.trafficgen  sentPk:vector(packetBytes)  ETV
attr interpolationmode  none
attr source  sentPk
attr title  "packets sent, vector(packetBytes)"
vector 458  Net802154MultiGateway.host[32].wrappedHost.trafficgen  PRR:vector  ETV
attr interpolationmode  none
attr source  count(sinkRcvdPk)/count(sentPk)
attr title  "PRR, vector"
vector 706  Net802154MultiGateway.host[50].wrappedHost.trafficgen  sentPk:vector(packetBytes)  ETV
attr interpolationmode  none
attr source  sentPk
attr title  "packets sent, vector(packetBytes)"
vector 710  Net802154MultiGateway.host[50].wrappedHost.trafficgen  PRR:vector  ETV
attr interpolationmode  none
attr source  count(sinkRcvdPk)/count(sentPk)
attr title  "PRR, vector"
vector 90  Net802154MultiGateway.host[6].wrappedHost.trafficgen  sentPk:vector(packetBytes)  ETV
attr interpolationmode  none
attr source  sentPk
attr title  "packets sent, vector(packetBytes)"
vector 94  Net802154MultiGateway.host[6].wrappedHost.trafficgen  PRR:vector  ETV
attr interpolationmode  none
attr source  count(sinkRcvdPk)/count(sentPk)
attr title  "PRR, vector"
vector 428  Net802154MultiGateway.host[30].wrappedHost.trafficgen  sinkRcvdPk:vector(packetBytes)  ETV
attr interpolationmode  none
attr source  sinkRcvdPk
attr title  "own packets received by sink, vector(packetBytes)"
vector 92  Net802154MultiGateway.host[6].wrappedHost.trafficgen  sinkRcvdPk:vector(packetBytes)  ETV
attr interpolationmode  none
attr source  sinkRcvdPk
attr title  "own packets received by sink, vector(packetBytes)"
vector 846  Net802154MultiGateway.host[60].wrappedHost.trafficgen  sentPk:vector(packetBytes)  ETV
attr interpolationmode  none
attr source  sentPk
attr title  "packets sent, vector(packetBytes)"
vector 850  Net802154MultiGateway.host[60].wrappedHost.trafficgen  PRR:vector  ETV
attr interpolationmode  none
attr source  count(sinkRcvdPk)/count(sentPk)
attr title  "PRR, vector"
vector 708  Net802154MultiGateway.host[50].wrappedHost.trafficgen  sinkRcvdPk:vector(packetBytes)  ETV
attr interpolationmode  none
attr source  sinkRcvdPk
attr title  "own packets received by sink, vector(packetBytes)"
vector 456  Net802154MultiGateway.host[32].wrappedHost.trafficgen  sinkRcvdPk:vector(packetBytes)  ETV
attr interpolationmode  none
attr source  sinkRcvdPk
attr title  "own packets received by sink, vector(packetBytes)"
vector 848  Net802154MultiGateway.host[60].wrappedHost.trafficgen  sinkRcvdPk:vector(packetBytes)  ETV
attr interpolationmode  none
attr source  sinkRcvdPk
attr title  "own packets received by sink, vector(packetBytes)"
vector 636  Net802154MultiGateway.host[45].wrappedHost.trafficgen  sentPk:vector(packetBytes)  ETV
attr interpolationmode  none
attr source  sentPk
attr title  "packets sent, vector(packetBytes)"
vector 640  Net802154MultiGateway.host[45].wrappedHost.trafficgen  PRR:vector  ETV
attr interpolationmode  none
attr source  count(sinkRcvdPk)/count(sentPk)
attr title  "PRR, vector"
vector 566  Net802154MultiGateway.host[40].wrappedHost.trafficgen  sentPk:vector(packetBytes)  ETV
attr interpolationmode  none
attr source  sentPk
attr title  "packets sent, vector(packetBytes)"
vector 570  Net802154MultiGateway.host[40].wrappedHost.trafficgen  PRR:vector  ETV
attr interpolationmode  none
attr source  count(sinkRcvdPk)/count(sentPk)
attr title  "PRR, vector"
vector 638  Net802154MultiGateway.host[45].wrappedHost.trafficgen  sinkRcvdPk:vector(packetBytes)  ETV
attr interpolationmode  none
attr source  sinkRcvdPk
attr title  "own packets received by sink, vector(packetBytes)"
vector 568  Net802154MultiGateway.host[40].wrappedHost.trafficgen  sinkRcvdPk:vector(packetBytes)  ETV
attr interpolationmode  none
attr source  sinkRcvdPk
attr title  "own packets received by sink, vector(packetBytes)"
vector 118  Net802154MultiGateway.host[8].wrappedHost.trafficgen  sentPk:vector(packetBytes)  ETV
attr interpolationmode  none
attr source  sentPk
attr title  "packets sent, vector(packetBytes)"
vector 122  Net802154MultiGateway.host[8].wrappedHost.trafficgen  PRR:vector  ETV
attr interpolationmode  none
attr source  count(sinkRcvdPk)/count(sentPk)
attr title  "PRR, vector"
vector 76  Net802154MultiGateway.host[5].wrappedHost.trafficgen  sentPk:vector(packetBytes)  ETV
attr interpolationmode  none
attr source  sentPk
attr title  "packets sent, vector(packetBytes)"
vector 80  Net802154MultiGateway.host[5].wrappedHost.trafficgen  PRR:vector  ETV
attr interpolationmode  none
attr source  count(sinkRcvdPk)/count(sentPk)
attr title  "PRR, vector"
vector 120  Net802154MultiGateway.host[8].wrappedHost.trafficgen  sinkRcvdPk:vector(packetBytes)  ETV
attr interpolationmode  none
attr source  sinkRcvdPk
attr title  "own packets received by sink, vector(packetBytes)"
vector 370  Net802154MultiGateway.host[26].wrappedHost.trafficgen  sentPk:vector(packetBytes)  ETV
attr interpolationmode  none
attr source  sentPk
attr title  "packets sent, vector(packetBytes)"
vector 374  Net802154MultiGateway.host[26].wrappedHost.trafficgen  PRR:vector  ETV
attr interpolationmode  none
attr source  count(sinkRcvdPk)/count(sentPk)
attr title  "PRR, vector"
vector 78  Net802154MultiGateway.host[5].wrappedHost.trafficgen  sinkRcvdPk:vector(packetBytes)  ETV
attr interpolationmode  none
attr source  sinkRcvdPk
attr title  "own packets received by sink, vector(packetBytes)"
vector 372  Net802154MultiGateway.host[26].wrappedHost.trafficgen  sinkRcvdPk:vector(packetBytes)  ETV
attr interpolationmode  none
attr source  sinkRcvdPk
attr title  "own packets received by sink, vector(packetBytes)"
vector 524  Net802154MultiGateway.host[37].wrappedHost.trafficgen  sentPk:vector(packetBytes)  ETV
attr interpolationmode  none
attr source  sentPk
attr title  "packets sent, vector(packetBytes)"
vector 528  Net802154MultiGateway.host[37].wrappedHost.trafficgen  PRR:vector  ETV
attr interpolationmode  none
attr source  count(sinkRcvdPk)/count(sentPk)
attr title  "PRR, vector"
vector 804  Net802154MultiGateway.host[57].wrappedHost.trafficgen  sentPk:vector(packetBytes)  ETV
attr interpolationmode  none
attr source  sentPk
attr title  "packets sent, vector(packetBytes)"
vector 808  Net802154MultiGateway.host[57].wrappedHost.trafficgen  PRR:vector  ETV
attr interpolationmode  none
attr source  count(sinkRcvdPk)/count(sentPk)
attr title  "PRR, vector"
vector 526  Net802154MultiGateway.host[37].wrappedHost.trafficgen  sinkRcvdPk:vector(packetBytes)  ETV
attr interpolationmode  none
attr source  sinkRcvdPk
attr title  "own packets received by sink, vector(packetBytes)"
vector 806  Net802154MultiGateway.host[57].wrappedHost.trafficgen  sinkRcvdPk:vector(packetBytes)  ETV
attr interpolationmode  none
attr source  sinkRcvdPk
attr title  "own packets received by sink, vector(packetBytes)"
vector 468  Net802154MultiGateway.host[33].wrappedHost.trafficgen  sentPk:vector(packetBytes)  ETV
attr interpolationmode  none
attr source  sentPk
attr title  "packets sent, vector(packetBytes)"
vector 472  Net802154MultiGateway.host[33].wrappedHost.trafficgen  PRR:vector  ETV
attr interpolationmode  none
attr source  count(sinkRcvdPk)/count(sentPk)
attr title  "PRR, vector"
vector 470  Net802154MultiGateway.host[33].wrappedHost.trafficgen  sinkRcvdPk:vector(packetBytes)  ETV
attr interpolationmode  none
attr source  sinkRcvdPk
attr title  "own packets received by sink, vector(packetBytes)"
vector 244  Net802154MultiGateway.host[17].wrappedHost.trafficgen  sentPk:vector(packetBytes)  ETV
attr interpolationmode  none
attr source  sentPk
attr title  "packets sent, vector(packetBytes)"
vector 248  Net802154MultiGateway.host[17].wrappedHost.trafficgen  PRR:vector  ETV
attr interpolationmode  none
attr source  count(sinkRcvdPk)/count(sentPk)
attr title  "PRR, vector"
vector 246  Net802154MultiGateway.host[17].wrappedHost.trafficgen  sinkRcvdPk:vector(packetBytes)  ETV
attr interpolationmode  none
attr source  sinkRcvdPk
attr title  "own packets received by sink, vector(packetBytes)"
vector 104  Net802154MultiGateway.host[7].wrappedHost.trafficgen  sentPk:vector(packetBytes)  ETV
attr interpolationmode  none
attr source  sentPk
attr title  "packets sent, vector(packetBytes)"
vector 108  Net802154MultiGateway.host[7].wrappedHost.trafficgen  PRR:vector  ETV
attr interpolationmode  none
attr source  count(sinkRcvdPk)/count(sentPk)
attr title  "PRR, vector"
vector 106  Net802154MultiGateway.host[7].wrappedHost.trafficgen  sinkRcvdPk:vector(packetBytes)  ETV
attr interpolationmode  none
attr source  sinkRcvdPk
attr title  "own packets received by sink, vector(packetBytes)"
vector 748  Net802154MultiGateway.host[53].wrappedHost.trafficgen  sentPk:vector(packetBytes)  ETV
attr interpolationmode  none
attr source  sentPk
attr title  "packets sent, vector(packetBytes)"
vector 752  Net802154MultiGateway.host[53].wrappedHost.trafficgen  PRR:vector  ETV
attr interpolationmode  none
attr source  count(sinkRcvdPk)/count(sentPk)
attr title  "PRR, vector"
vector 750  Net802154MultiGateway.host[53].wrappedHost.trafficgen  sinkRcvdPk:vector(packetBytes)  ETV
attr interpolationmode  none
attr source  sinkRcvdPk
attr title  "own packets received by sink, vector(packetBytes)"
vector 132  Net802154MultiGateway.host[9].wrappedHost.trafficgen  sentPk:vector(packetBytes)  ETV
attr interpolationmode  none
attr source  sentPk
attr title  "packets sent, vector(packetBytes)"
vector 136  Net802154MultiGateway.host[9].wrappedHost.trafficgen  PRR:vector  ETV
attr interpolationmode  none
attr source  count(sinkRcvdPk)/count(sentPk)
attr title  "PRR, vector"
vector 134  Net802154MultiGateway.host[9].wrappedHost.trafficgen  sinkRcvdPk:vector(packetBytes)  ETV
attr interpolationmode  none
attr source  sinkRcvdPk
attr title  "own packets received by sink, vector(packetBytes)"
vector 482  Net802154MultiGateway.host[34].wrappedHost.trafficgen  sentPk:vector(packetBytes)  ETV
attr interpolationmode  none
attr source  sentPk
attr title  "packets sent, vector(packetBytes)"
vector 486  Net802154MultiGateway.host[34].wrappedHost.trafficgen  PRR:vector  ETV
attr interpolationmode  none
attr source  count(sinkRcvdPk)/count(sentPk)
attr title  "PRR, vector"
vector 484  Net802154MultiGateway.host[34].wrappedHost.trafficgen  sinkRcvdPk:vector(packetBytes)  ETV
attr interpolationmode  none
attr source  sinkRcvdPk
attr title  "own packets received by sink, vector(packetBytes)"
vector 664  Net802154MultiGateway.host[47].wrappedHost.trafficgen  sentPk:vector(packetBytes)  ETV
attr interpolationmode  none
attr source  sentPk
attr title  "packets sent, vector(packetBytes)"
vector 668  Net802154MultiGateway.host[47].wrappedHost.trafficgen  PRR:vector  ETV
attr interpolationmode  none
attr source  count(sinkRcvdPk)/count(sentPk)
attr title  "PRR, vector"
vector 666  Net802154MultiGateway.host[47].wrappedHost.trafficgen  sinkRcvdPk:vector(packetBytes)  ETV
attr interpolationmode  none
attr source  sinkRcvdPk
attr title  "own packets received by sink, vector(packetBytes)"
vector 832  Net802154MultiGateway.host[59].wrappedHost.trafficgen  sentPk:vector(packetBytes)  ETV
attr interpolationmode  none
attr source  sentPk
attr title  "packets sent, vector(packetBytes)"
vector 836  Net802154MultiGateway.host[59].wrappedHost.trafficgen  PRR:vector  ETV
attr interpolationmode  none
attr source  count(sinkRcvdPk)/count(sentPk)
attr title  "PRR, vector"
vector 834  Net802154MultiGateway.host[59].wrappedHost.trafficgen  sinkRcvdPk:vector(packetBytes)  ETV
attr interpolationmode  none
attr source  sinkRcvdPk
attr title  "own packets received by sink, vector(packetBytes)"
5	52096 178705 1688085 3211177 161.011159533201 301.177003374716 5979 76 76 454404 34534704
7	230801 249980 1688085 3211177 161.011159533201 301.177003374716 5979 0.004000333564 0.098019339133 131.45876523583 3.5895224388295
9	480781 8231 1 3370484 1 315.510533463662 284 76 76 21584 1640384
20	489012 3088 1698583 3094399 161.825506021129 290.393500178779 100 76 76 7600 577600
22	492100 3092 1698692 3094529 161.836462596564 290.397820512343 100 76 76 7600 577600
23	495192 5829 2 3358588 1 314.341472983563 198 76 76 15048 1143648
24	501021 7308 1698583 3094529 161.825506021129 290.397820512343 200 0.5 1 -nan -nan
34	508329 3078 1692113 2853248 161.375402446481 268.81627250314 100 76 76 7600 577600
36	511407 3091 1692252 2853381 161.380042780045 268.821872836704 100 76 76 7600 577600
37	514498 5848 3 3367949 1 315.336524793553 197 76 76 14972 1137872
38	520346 7297 1692113 2853381 161.375402446481 268.821872836704 200 0.5 1 -nan -nan
48	527643 3095 1701317 2937406 162.047010597568 275.93720115245 100 76 76 7600 577600
50	530738 3082 1701393 2937532 162.053058931132 275.942801486014 100 76 76 7600 577600
51	533820 5193 4 3365026 1 315.002692378394 175 76 76 13300 1010800
52	539013 7305 1701317 2937532 162.047010597568 275.942801486014 200 0.5 1 -nan -nan
62	546318 3087 1688121 2970461 161.016864788998 279.022098010687 100 76 76 7600 577600
64	549405 3032 1688147 2970605 161.020865122562 279.037127867624 98 76 76 7448 566048
65	552437 5605 5 3345905 1 313.218980068593 190 76 76 14440 1097440
66	558042 7267 1688121 2970605 161.016864788998 279.037127867624 198 0.5 1 -nan -nan
76	565309 3084 1703762 2717907 162.239025100241 256.274731803549 100 76 76 7600 577600
78	568393 3089 1703957 2718006 162.254161433805 256.283020137113 100 76 76 7600 577600
79	571482 5957 6 3374762 1 315.859158695283 201 76 76 15276 1160976
80	577439 7301 1703762 2718006 162.239025100241 256.283020137113 200 0.5 1 -nan -nan
90	584740 3086 1701920 2740587 162.09256767231 258.370366057168 100 76 76 7600 577600
92	587826 3095 1702068 2740628 162.097848005874 258.375966390732 100 76 76 7600 577600
93	590921 5566 7 3343618 1 312.957809124708 188 76 76 14288 1085888
94	596487 7309 1701920 2740628 162.09256767231 258.375966390732 200 0.5 1 -nan -nan
104	603796 3189 1710617 2997615 162.818363716992 281.674440750145 100 76 76 7600 577600
106	606985 3096 1710721 2997704 162.83010838412 281.684585417273 97 76 76 7372 560272
107	610081 5642 8 3375904 1 315.979613578047 185 76 76 14060 1068560
108	615723 8552 1710617 2997704 162.818363716992 281.684585417273 197 0.5 1 -nan -nan
118	624275 3190 1703683 2866222 162.231329869484 270.213549337272 100 76 76 7600 577600
120	627465 3082 1703779 2866539 162.241794616439 270.228302084227 97 76 76 7372 560272
121	630547 5324 9 3354682 1 314.059791750514 173 76 76 13148 999248
122	635871 8475 1703683 2866539 162.231329869484 270.228302084227 197 0.5 1 -nan -nan
132	644346 3184 1712014 2944886 162.983111807649 276.663011076862 100 76 76 7600 577600
134	647530 3123 1712229 2945154 162.995816474777 276.68027574399 98 76 76 7448 566048
135	650653 5834 10 3376266 1 316.010123465615 191 76 76 14516 1103216
136	656487 8230 1712014 2945154 162.983111807649 276.68027574399 198 0.5 1 -nan -nan
146	664717 3192 1692302 2791826 161.381884927852 263.380627479968 100 76 76 7600 577600
148	667909 3185 1692741 2792118 161.40487474333 263.393332226923 100 76 76 7600 577600
149	671094 6095 11 3350370 1 313.697268180361 199 76 76 15124 1149424
150	677189 7554 1692302 2792118 161.381884927852 263.393332226923 200 0.5 1 -nan -nan
160	684743 3186 1690760 2966142 161.251787382974 278.524780342408 100 76 76 7600 577600
162	687929 3123 1690920 2966331 161.265900050102 278.540445009536 98 76 76 7448 566048
163	691052 5939 12 3373397 1 315.747395638571 195 76 76 14820 1126320
164	696991 8148 1690760 2966331 161.251787382974 278.540445009536 198 0.5 1 -nan -nan
174	705139 3190 1690242 3015539 161.195527086843 283.198713296354 100 76 76 7600 577600
176	708329 3120 1690348 3015750 161.205671833798 283.210458043309 98 76 76 7448 566048
177	711449 5342 13 3346302 1 313.274908223248 175 76 76 13300 1010800
178	716791 7947 1690242 3015750 161.195527086843 283.210458043309 198 0.5 1 -nan -nan
188	724738 3190 1688721 2775238 161.07908618298 261.85467035853 100 76 76 7600 577600
190	727928 3126 1688810 2775373 161.088590850108 261.865455025658 98 76 76 7448 566048
191	731054 6708 14 3376689 1 316.064537557746 219 76 76 16644 1264944
192	737762 7908 1688721 2775373 161.07908618298 261.865455025658 198 0.5 1 -nan -nan
202	745670 3185 1687994 2970258 161.001654786246 279.014230453541 100 76 76 7600 577600
204	748855 3092 1688085 2970664 161.011159533201 279.043912534752 97 76 76 7372 560272
205	751947 5625 15 3373997 1 315.790861083956 184 76 76 13984 1062784
206	757572 8646 1687994 2970664 161.001654786246 279.043912534752 197 0.33333333333333 1 -nan -nan
216	766218 3187 1697114 2760614 161.732981112802 260.508482845847 100 76 76 7600 577600
218	769405 3127 1697207 2761067 161.74536577993 260.530627512975 98 76 76 7448 566048
219	772532 6483 16 3375523 1 315.955018074011 211 76 76 16036 1218736
220	779015 8647 1697114 2761067 161.732981112802 260.530627512975 198 0.5 1 -nan -nan
230	787662 3182 1690041 2880244 161.177134904412 271.576659759844 100 76 76 7600 577600
232	790844 3126 1690208 2880335 161.192479651367 271.585844506799 98 76 76 7448 566048
233	793970 5243 17 3369237 1 315.451970222068 171 76 76 12996 987696
234	799213 8288 1690041 2880335 161.177134904412 271.585844506799 198 0.5 1 -nan -nan
244	807501 3192 1710490 2898261 162.792467605445 272.777404885904 100 76 76 7600 577600
246	810693 3184 1710579 2898672 162.802292272573 272.800557553032 100 76 76 7600 577600
247	813877 5906 18 3377246 1 316.098655454281 192 76 76 14592 1108992
248	819783 7534 1710490 2898672 162.792467605445 272.800557553032 200 0.5 1 -nan -nan
258	827317 3192 1691848 3005044 161.351363483213 282.238601759842 100 76 76 7600 577600
260	830509 3064 1692014 3005133 161.369444230168 282.248746506797 96 76 76 7296 554496
261	833573 6040 19 3362832 1 314.718994071274 199 76 76 15124 1149424
262	839613 8217 1691848 3005133 161.351363483213 282.248746506797 196 0.5 1 -nan -nan
272	847830 3191 1693536 2982279 161.444699833617 280.325910079058 100 76 76 7600 577600
274	851021 3124 1693823 2982881 161.462588834309 280.35893507975 98 76 76 7448 566048
275	854145 5210 20 3366534 1 315.207360511149 171 76 76 12996 987696
276	859355 7924 1693536 2982881 161.444699833617 280.35893507975 198 0.5 1 -nan -nan
286	867279 3187 1697867 2904567 161.793299952243 273.252064056254 100 76 76 7600 577600
288	870466 3095 1698504 2905558 161.820590809894 273.296321165906 97 76 76 7372 560272
289	873561 6176 21 3359791 1 314.413533644671 202 76 76 15352 1166752
290	879737 8470 1697867 2905558 161.793299952243 273.296321165906 197 0.5 1 -nan -nan
300	888207 3187 1701032 2810575 162.027027494218 265.06616917469 100 76 76 7600 577600
302	891394 3087 1701335 2810723 162.04819660387 265.082458284342 97 76 76 7372 560272
303	894481 5393 22 3371036 1 315.580021438759 175 76 76 13300 1010800
304	899874 8604 1701032 2810723 162.027027494218 265.082458284342 197 0.5 1 -nan -nan
314	908478 3191 1690877 3014227 161.262006109907 283.093120119369 100 76 76 7600 577600
316	911669 3121 1691406 3014689 161.299879110599 283.115249120061 98 76 76 7448 566048
317	914790 5283 23 3376851 1 316.075066874533 173 76 76 13148 999248
318	920073 7784 1690877 3014689 161.262006109907 283.115249120061 198 0.5 1 -nan -nan
328	927857 3186 1692087 2804019 161.371416139768 264.477215368609 100 76 76 7600 577600
330	931043 3100 1692639 2804171 161.400330076202 264.492544478261 97 76 76 7372 560272
331	934143 6347 24 3371331 1 315.605116071139 207 76 76 15732 1195632
332	940490 8607 1692087 2804171 161.371416139768 264.492544478261 197 0.5 1 -nan -nan
342	949097 3189 1688912 2811951 161.113237964453 265.208234277729 100 76 76 7600 577600
344	952286 3092 1689668 2812420 161.146683249164 265.237483387381 97 76 76 7372 560272
345	955378 5596 25 3370968 1 315.571879995898 183 76 76 13908 1057008
346	960974 8315 1688912 2812420 161.113237964453 265.237483387381 197 0.5 1 -nan -nan
356	969289 3186 1700967 2823719 162.020715637255 266.126885207087 100 76 76 7600 577600
358	972475 3129 1701188 2823934 162.037644637947 266.143814207779 98 76 76 7448 566048
359	975604 6110 26 3356240 1 314.182855926694 199 76 76 15124 1149424
360	981714 8176 1700967 2823934 162.020715637255 266.143814207779 198 0.5 1 -nan -nan
370	989890 3185 1703815 3210839 162.243380895331 301.159754265064 100 76 76 7600 577600
372	993075 3119 1704098 3211177 162.266150004983 301.177003374716 98 76 76 7448 566048
373	996194 4878 27 3374691 1 315.851347787422 161 76 76 12236 929936
374	1001072 8493 1703815 3211177 162.243380895331 301.177003374716 198 0.5 1 -nan -nan
384	1009565 3191 1689121 2821767 161.125610322369 266.013014767987 100 76 76 7600 577600
386	1012756 3094 1689559 2822084 161.140427432021 266.036423877639 97 76 76 7372 560272
387	1015850 6212 28 3365510 1 315.084472219212 203 76 76 15428 1172528
388	1022062 8386 1689121 2822084 161.125610322369 266.036423877639 197 0.5 1 -nan -nan
398	1030448 3188 1692697 2733309 161.402483128478 257.714365320163 100 76 76 7600 577600
400	1033636 3190 1693274 2733523 161.42333212917 257.731614320855 100 76 76 7600 577600
401	1036826 6626 29 3344918 1 313.097369870514 216 76 76 16416 1247616
402	1043452 7536 1692697 2733523 161.402483128478 257.731614320855 200 0.5 1 -nan -nan
412	1050988 3191 1696744 2697607 161.683390127532 254.656054675884 100 76 76 7600 577600
414	1054179 3096 1696891 2697823 161.701599237184 254.672663785536 97 76 76 7372 560272
415	1057275 6824 30 3344090 1 312.997705294211 222 76 76 16872 1282272
416	1064099 8237 1696744 2697823 161.683390127532 254.672663785536 197 0.5 1 -nan -nan
426	1072336 3186 1701662 2958914 162.0767267414 277.880322468781 100 76 76 7600 577600
428	1075522 3089 1701933 2960121 162.093015851052 277.932051578433 97 76 76 7372 560272
429	1078611 5728 31 3373696 1 315.776076904048 188 76 76 14288 1085888
430	1084339 8014 1701662 2960121 162.0767267414 277.932051578433 197 0.5 1 -nan -nan
440	1092353 3182 1691440 2815311 161.303691906011 265.611611858948 100 76 76 7600 577600
442	1095535 3158 1691593 2815571 161.319980906703 265.62950085964 99 76 76 7524 571824
443	1098693 5531 32 3374957 1 315.932029295292 181 76 76 13756 1045456
444	1104224 8645 1691440 2815571 161.303691906011 265.62950085964 199 0.5 1 -nan -nan
454	1112869 3191 1701779 2747623 162.083999948481 259.189108101975 100 76 76 7600 577600
456	1116060 3122 1702574 2748315 162.119857058133 259.231631439961 98 76 76 7448 566048
457	1119182 6258 33 3375131 1 315.939446584516 204 76 76 15504 1178304
458	1125440 8197 1701779 2748315 162.083999948481 259.231631439961 198 0.5 1 -nan -nan
468	1133637 3190 1709319 2986376 162.678708680927 280.779229423703 100 76 76 7600 577600
470	1136827 3186 1709848 2986573 162.709957790579 280.795198533355 100 76 76 7600 577600
471	1140013 6058 34 3372467 1 315.698489730871 198 76 76 15048 1143648
472	1146071 7519 1709319 2986573 162.678708680927 280.795198533355 200 0.5 1 -nan -nan
482	1153590 3192 1713370 2903885 163.094938024826 273.169294632122 100 76 76 7600 577600
484	1156782 3094 1713519 2904033 163.112187025518 273.186863632814 97 76 76 7372 560272
485	1159876 5669 35 3361019 1 314.52805525607 185 76 76 14060 1068560
486	1165545 8419 1713370 2904033 163.094938024826 273.186863632814 197 0.5 1 -nan -nan
496	1173964 3191 1693062 2950767 161.414797978463 277.132624162211 100 76 76 7600 577600
498	1177155 3185 1693476 2951286 161.437567088115 277.158673271863 100 76 76 7600 577600
499	1180340 5586 36 3353002 1 313.897739729244 182 76 76 13832 1051232
500	1185926 7519 1693062 2951286 161.414797978463 277.158673271863 200 0.5 1 -nan -nan
510	1193445 3186 1697430 2950183 161.777630122209 277.103300253944 100 76 76 7600 577600
512	1196631 3157 1697854 2949298 161.793279231861 276.954217604182 99 76 76 7524 571824
513	1199788 5633 37 3358511 1 314.3394111542 185 76 76 14060 1068560
514	1205421 7532 1697430 2950183 161.777630122209 277.103300253944 199 0.5 1 -nan -nan
524	1212953 3195 1704355 2705664 162.285405427095 255.296400092092 100 76 76 7600 577600
526	1216148 3034 1705360 2706371 162.315902761351 255.335713426348 95 76 76 7220 548720
527	1219182 6109 38 3372714 1 315.714162494903 199 76 76 15124 1149424
528	1225291 8494 1704355 2706371 162.285405427095 255.335713426348 195 0.5 1 -nan -nan
538	1233785 3187 1695232 2836558 161.600773047627 267.418493848551 100 76 76 7600 577600
540	1236972 3159 1695817 2837295 161.625254504839 267.443295305763 99 76 76 7524 571824
541	1240131 5794 39 3375774 1 315.971818041083 189 76 76 14364 1091664
542	1245925 7661 1695232 2837295 161.600773047627 267.443295305763 199 0.5 1 -nan -nan
552	1253586 3187 1688185 2751273 161.033103892504 259.579020752744 100 76 76 7600 577600
554	1256773 3130 1688462 2751592 161.053297379912 259.602734240152 98 76 76 7448 566048
555	1259903 6386 40 3368138 1 315.379590222084 208 76 76 15808 1201408
556	1266289 8314 1688185 2751592 161.033103892504 259.602734240152 198 0.33333333333333 1 -nan -nan
566	1274603 3188 1702806 2955344 162.142419556545 277.50765107447 100 76 76 7600 577600
568	1277791 3092 1703475 2955591 162.179909005945 277.53008452387 97 76 76 7372 560272
569	1280883 5194 41 3349138 1 313.595908708988 170 76 76 12920 981920
570	1286077 8415 1702806 2955591 162.142419556545 277.53008452387 197 0.5 1 -nan -nan
580	1294492 3191 1688244 2859210 161.040516563069 269.534802877219 100 76 76 7600 577600
582	1297683 3122 1688683 2859499 161.068149900818 269.558516214968 98 76 76 7448 566048
583	1300805 5660 42 3377328 1 316.107429395 185 76 76 14060 1068560
584	1306465 8326 1688244 2859499 161.040516563069 269.558516214968 198 0.5 1 -nan -nan
594	1314791 3183 1689084 3002166 161.124105959282 281.970265146368 100 76 76 7600 577600
596	1317974 3126 1690068 3003031 161.180482288295 281.998858621906 98 76 76 7448 566048
597	1321100 4699 43 3377792 1 316.141870442691 153 76 76 11628 883728
598	1325799 8698 1689084 3003031 161.124105959282 281.998858621906 198 0.33333333333333 0.98 -nan -nan
608	1334497 3187 1697456 3057311 161.778823369175 287.086951628059 100 76 76 7600 577600
610	1337684 3090 1698257 3057511 161.806904836468 287.108425095352 97 76 76 7372 560272
611	1340774 4899 44 3377495 1 316.122410270938 160 76 76 12160 924160
612	1345673 8571 1697456 3057511 161.778823369175 287.108425095352 197 0.5 1 -nan -nan
622	1354244 3187 1688859 2845422 161.110425805558 268.073074623341 100 76 76 7600 577600
624	1357431 3037 1689796 2845629 161.156891974558 268.097108066947 95 76 76 7220 548720
625	1360468 5235 45 3364451 1 314.936875665141 172 76 76 13072 993472
626	1365703 8362 1688859 2845629 161.110425805558 268.097108066947 195 0.5 1 -nan -nan
636	1374065 3187 1702686 2932373 162.131528981816 275.567690099109 100 76 76 7600 577600
638	1377252 3092 1703149 2932579 162.154922329827 275.59044344712 97 76 76 7372 560272
639	1380344 5564 46 3365749 1 315.123531216182 181 76 76 13756 1045456
640	1385908 8337 1702686 2932579 162.131528981816 275.59044344712 197 0.5 1 -nan -nan
650	1394245 3189 1695781 2871973 161.623934540035 270.87115212294 100 76 76 7600 577600
652	1397434 3187 1696458 2872321 161.651567926292 270.895185509197 100 76 76 7600 577600
653	1400621 6832 47 3368434 1 315.411713671521 222 76 76 16872 1282272
654	1407453 7504 1695781 2872321 161.623934540035 270.895185509197 200 0.5 1 -nan -nan
664	1414957 3194 1718878 2995773 163.771111806231 281.513082242784 100 76 76 7600 577600
666	1418151 3091 1719078 2996257 163.790985259059 281.540715695612 97 76 76 7372 560272
667	1421242 5161 48 3372301 1 315.686262038996 168 76 76 12768 970368
668	1426403 8221 1718878 2996257 163.771111806231 281.540715695612 197 0.5 1 -nan -nan
678	1434624 3191 1690905 2841498 161.265656722412 267.766904235821 100 76 76 7600 577600
680	1437815 3134 1691340 2842025 161.287258167185 267.789657680594 98 76 76 7448 566048
681	1440949 5876 49 3347046 1 313.369200976403 192 76 76 14592 1108992
682	1446825 8250 1690905 2842025 161.265656722412 267.789657680594 198 0.5 1 -nan -nan
692	1455075 3189 1700441 2864621 161.979104858894 270.054125786268 100 76 76 7600 577600
694	1458264 3157 1700769 2865001 161.999938223346 270.08535915072 99 76 76 7524 571824
695	1461421 5595 50 3372769 1 315.717489405782 183 76 76 13908 1057008
696	1467016 8516 1700441 2865001 161.979104858894 270.08535915072 199 0.5 1 -nan -nan
706	1475532 3189 1701897 2818123 162.090398637692 265.824023954948 100 76 76 7600 577600
708	1478721 3066 1702426 2819305 162.111552002144 265.882426714048 96 76 76 7296 554496
709	1481787 5426 51 3376397 1 316.039532668152 177 76 76 13452 1022352
710	1487213 8594 1701897 2819305 162.090398637692 265.882426714048 196 0.5 1 -nan -nan
720	1495807 3190 1690578 2956813 161.231716620288 277.642498788946 100 76 76 7600 577600
722	1498997 3153 1690777 2957006 161.252550065061 277.663012233719 99 76 76 7524 571824
723	1502150 6045 52 3358447 1 314.333390522865 197 76 76 14972 1137872
724	1508195 8543 1690578 2957006 161.231716620288 277.663012233719 199 0.5 1 -nan -nan
734	1516738 3189 1688848 2855773 161.107187065563 269.219237839032 100 76 76 7600 577600
736	1519927 3122 1689250 2855971 161.130260518391 269.24135129186 98 76 76 7448 566048
737	1523049 6095 53 3365991 1 315.16146535452 198 76 76 15048 1143648
738	1529144 7624 1688848 2855971 161.107187065563 269.24135129186 198 0.5 1 -nan -nan
748	1536768 3184 1711169 2983649 162.863423635893 280.44653581194 100 76 76 7600 577600
750	1539952 3126 1711374 2984065 162.88745702215 280.469609198197 98 76 76 7448 566048
751	1543078 5121 54 3366296 1 315.190826461183 167 76 76 12692 964592
752	1548199 8561 1711169 2984065 162.863423635893 280.469609198197 198 0.5 1 -nan -nan
762	1556760 3194 1693919 3145931 161.469731348256 295.21468946754 100 76 76 7600 577600
764	1559954 3096 1694368 3146649 161.498004696267 295.242642815551 97 76 76 7372 560272
765	1563050 4936 55 3361227 1 314.537021976164 162 76 76 12312 935712
766	1567986 8669 1693919 3146649 161.469731348256 295.242642815551 197 0.33333333333333 1 -nan -nan
776	1576655 3187 1692545 2803730 161.393607889724 264.451846740012 100 76 76 7600 577600
778	1579842 3122 1693043 2803983 161.41444133333 264.473320183618 98 76 76 7448 566048
779	1582964 5850 56 3376519 1 316.053935925969 190 76 76 14440 1097440
780	1588814 8676 1692545 2803983 161.393607889724 264.473320183618 198 0.5 1 -nan -nan
790	1597490 3187 1691677 2976888 161.333329871199 279.949729882173 100 76 76 7600 577600
792	1600677 3130 1691880 2977212 161.356723338492 279.971523349466 98 76 76 7448 566048
793	1603807 5932 57 3364045 1 314.840807098265 194 76 76 14744 1120544
794	1609739 8646 1691677 2977212 161.333329871199 279.971523349466 198 0.5 1 -nan -nan
804	1618385 3190 1704366 2828083 162.285444219406 266.503731126988 100 76 76 7600 577600
806	1621575 3095 1705465 2828342 162.321013694944 266.527444602526 97 76 76 7372 560272
807	1624670 6541 58 3374410 1 315.817620270232 214 76 76 16264 1236064
808	1631211 8489 1704366 2828342 162.285444219406 266.527444602526 197 0.5 1 -nan -nan
818	1639700 3191 1699094 3033665 161.863675799034 284.614057363583 100 76 76 7600 577600
820	1642891 3092 1700218 3034088 161.938651670495 284.643786701332 97 76 76 7372 560272
821	1645983 4924 59 3374029 1 315.794335666861 162 76 76 12312 935712
822	1650907 8647 1699094 3034088 161.863675799034 284.643786701332 197 0.33333333333333 0.975 -nan -nan
832	1659554 3189 1744270 2818446 166.425659303865 265.846950290385 100 76 76 7600 577600
834	1662743 3128 1745335 2818975 166.458812753265 265.870663739785 98 76 76 7448 566048
835	1665871 4978 60 3371328 1 315.604963484039 162 76 76 12312 935712
836	1670849 8384 1744270 2818975 166.425659303865 265.870663739785 198 0.5 1 -nan -nan
846	1679233 3183 1702102 3021931 162.099840957231 283.714906451762 100 76 76 7600 577600
848	1682416 3157 1702651 3022907 162.127474444639 283.75485993917 99 76 76 7524 571824
849	1685573 4918 61 3312790 1 310.392397661794 161 76 76 12236 929936
850	1690491 7607 1702102 3022907 162.099840957231 283.75485993917 199 0.5 1 -nan -nan
860	1698098 3185 1695581 2751629 161.618225862906 259.610286927824 100 76 76 7600 577600
862	1701283 3160 1696708 2751908 161.674547987246 259.631120385036 99 76 76 7524 571824
863	1704443 5630 62 3365088 1 315.023384641812 183 76 76 13908 1057008
864	1710073 7642 1695581 2751908 161.618225862906 259.631120385036 199 0.5 1 -nan -nan
