version 2
run DSME-0-20160826-12:17:14-14503
attr beaconInterval 10s
attr configname DSME
attr datetime 20160826-12:17:14
attr experiment DSME
attr inifile simulations/omnetpp.ini
attr iterationvars "$packetLength=76B, $sendInt=2, $beaconInterval=10s, $0=10s/2, $1=3 * 10s"
attr iterationvars2 "$packetLength=76B, $sendInt=2, $beaconInterval=10s, $0=10s/2, $1=3 * 10s, $repetition=0"
attr measurement "$packetLength=76B, $sendInt=2, $beaconInterval=10s, $0=10s/2, $1=3 * 10s"
attr network multi_gateway.Net802154MultiGateway
attr packetLength 76B
attr processid 14503
attr repetition 0
attr replication #0
attr resultdir ../results
attr runnumber 0
attr seedset 0
attr sendInt 2
param **.configurator.addStaticRoutes false
param **.dumpRoutes false
param **.dumpTopology false
param **.host[*].**.gpsr.beaconInterval "${beaconInterval = 10s}"
param **.host[*].**.gpsr.maxJitter ${$beaconInterval/2}
param **.host[*].**.gpsr.neighborValidityInterval "${3 * $beaconInterval}"
param **.host[*].**.gpsr.positionByteLength "2 B"
param **.host[*].**.gpsr.routingStrategy "\"StraightestPath\""
param **.host[*].**.trafficgen.continueSendingDummyPackets true
param **.host[*].**.trafficgen.coolDownDuration 15s
param **.host[*].**.trafficgen.destAddresses "\"host[0].wrappedHost(modulepath)\""
param **.host[*].**.trafficgen.packetLength "${packetLength = 76B}"
param **.host[*].**.trafficgen.sendInterval "exponential(${sendInt=1.0..2.5 step 0.25}s)"
param **.host[*].**.trafficgen.warmUpDuration 160s
param **.host[*].**.wlan[*].mac.macDSMEGTSExpirationTime 12
param **.host[*].**.wlan[*].macType "\"DSME\""
param **.host[*].**.wlan[*].radio.receiver.minInterferencePower "-100 dBm"
param **.host[*].hostType "\"SimpleHost\""
param **.host[*].mobilityType "\"StaticConcentricWrappingMobility\""
param **.host[0].**.trafficgen.numPackets 0
param **.host[0].**.wlan[*].mac.isPANCoordinator true
param **.host[1..].**.trafficgen.numPackets 100
param **.numHosts 62
param **.radioMedium.rangeFilter "\"interferenceRange\""
param **.routingTable.addressType "\"modulepath\""
param **.routingTableType "\"GenericRoutingTable\""

scalar . 	beaconInterval 	10
attr unit  s
scalar . 	packetLength 	76
attr unit  B
scalar . 	sendInt 	2
scalar Net802154MultiGateway.host[0].mobility 	x 	400
scalar Net802154MultiGateway.host[0].mobility 	y 	400
scalar Net802154MultiGateway.host[0].mobility 	z 	0
scalar Net802154MultiGateway.host[0].wrappedHost.mobility 	x 	400
scalar Net802154MultiGateway.host[0].wrappedHost.mobility 	y 	400
scalar Net802154MultiGateway.host[0].wrappedHost.mobility 	z 	0
scalar Net802154MultiGateway.host[0].wrappedHost.mobility 	x 	400
scalar Net802154MultiGateway.host[0].wrappedHost.mobility 	y 	400
scalar Net802154MultiGateway.host[0].wrappedHost.mobility 	z 	0
scalar Net802154MultiGateway.host[1].mobility 	x 	500
scalar Net802154MultiGateway.host[1].mobility 	y 	400
scalar Net802154MultiGateway.host[1].mobility 	z 	0
scalar Net802154MultiGateway.host[1].wrappedHost.mobility 	x 	500
scalar Net802154MultiGateway.host[1].wrappedHost.mobility 	y 	400
scalar Net802154MultiGateway.host[1].wrappedHost.mobility 	z 	0
scalar Net802154MultiGateway.host[1].wrappedHost.mobility 	x 	500
scalar Net802154MultiGateway.host[1].wrappedHost.mobility 	y 	400
scalar Net802154MultiGateway.host[1].wrappedHost.mobility 	z 	0
scalar Net802154MultiGateway.host[2].mobility 	x 	450
scalar Net802154MultiGateway.host[2].mobility 	y 	486.60254037844
scalar Net802154MultiGateway.host[2].mobility 	z 	0
scalar Net802154MultiGateway.host[2].wrappedHost.mobility 	x 	450
scalar Net802154MultiGateway.host[2].wrappedHost.mobility 	y 	486.60254037844
scalar Net802154MultiGateway.host[2].wrappedHost.mobility 	z 	0
scalar Net802154MultiGateway.host[2].wrappedHost.mobility 	x 	450
scalar Net802154MultiGateway.host[2].wrappedHost.mobility 	y 	486.60254037844
scalar Net802154MultiGateway.host[2].wrappedHost.mobility 	z 	0
scalar Net802154MultiGateway.host[3].mobility 	x 	350
scalar Net802154MultiGateway.host[3].mobility 	y 	486.60254037844
scalar Net802154MultiGateway.host[3].mobility 	z 	0
scalar Net802154MultiGateway.host[3].wrappedHost.mobility 	x 	350
scalar Net802154MultiGateway.host[3].wrappedHost.mobility 	y 	486.60254037844
scalar Net802154MultiGateway.host[3].wrappedHost.mobility 	z 	0
scalar Net802154MultiGateway.host[3].wrappedHost.mobility 	x 	350
scalar Net802154MultiGateway.host[3].wrappedHost.mobility 	y 	486.60254037844
scalar Net802154MultiGateway.host[3].wrappedHost.mobility 	z 	0
scalar Net802154MultiGateway.host[4].mobility 	x 	300
scalar Net802154MultiGateway.host[4].mobility 	y 	400
scalar Net802154MultiGateway.host[4].mobility 	z 	0
scalar Net802154MultiGateway.host[4].wrappedHost.mobility 	x 	300
scalar Net802154MultiGateway.host[4].wrappedHost.mobility 	y 	400
scalar Net802154MultiGateway.host[4].wrappedHost.mobility 	z 	0
scalar Net802154MultiGateway.host[4].wrappedHost.mobility 	x 	300
scalar Net802154MultiGateway.host[4].wrappedHost.mobility 	y 	400
scalar Net802154MultiGateway.host[4].wrappedHost.mobility 	z 	0
scalar Net802154MultiGateway.host[5].mobility 	x 	350
scalar Net802154MultiGateway.host[5].mobility 	y 	313.39745962156
scalar Net802154MultiGateway.host[5].mobility 	z 	0
scalar Net802154MultiGateway.host[5].wrappedHost.mobility 	x 	350
scalar Net802154MultiGateway.host[5].wrappedHost.mobility 	y 	313.39745962156
scalar Net802154MultiGateway.host[5].wrappedHost.mobility 	z 	0
scalar Net802154MultiGateway.host[5].wrappedHost.mobility 	x 	350
scalar Net802154MultiGateway.host[5].wrappedHost.mobility 	y 	313.39745962156
scalar Net802154MultiGateway.host[5].wrappedHost.mobility 	z 	0
scalar Net802154MultiGateway.host[6].mobility 	x 	450
scalar Net802154MultiGateway.host[6].mobility 	y 	313.39745962156
scalar Net802154MultiGateway.host[6].mobility 	z 	0
scalar Net802154MultiGateway.host[6].wrappedHost.mobility 	x 	450
scalar Net802154MultiGateway.host[6].wrappedHost.mobility 	y 	313.39745962156
scalar Net802154MultiGateway.host[6].wrappedHost.mobility 	z 	0
scalar Net802154MultiGateway.host[6].wrappedHost.mobility 	x 	450
scalar Net802154MultiGateway.host[6].wrappedHost.mobility 	y 	313.39745962156
scalar Net802154MultiGateway.host[6].wrappedHost.mobility 	z 	0
scalar Net802154MultiGateway.host[7].mobility 	x 	600
scalar Net802154MultiGateway.host[7].mobility 	y 	400
scalar Net802154MultiGateway.host[7].mobility 	z 	0
scalar Net802154MultiGateway.host[7].wrappedHost.mobility 	x 	600
scalar Net802154MultiGateway.host[7].wrappedHost.mobility 	y 	400
scalar Net802154MultiGateway.host[7].wrappedHost.mobility 	z 	0
scalar Net802154MultiGateway.host[7].wrappedHost.mobility 	x 	600
scalar Net802154MultiGateway.host[7].wrappedHost.mobility 	y 	400
scalar Net802154MultiGateway.host[7].wrappedHost.mobility 	z 	0
scalar Net802154MultiGateway.host[8].mobility 	x 	573.20508075689
scalar Net802154MultiGateway.host[8].mobility 	y 	500
scalar Net802154MultiGateway.host[8].mobility 	z 	0
scalar Net802154MultiGateway.host[8].wrappedHost.mobility 	x 	573.20508075689
scalar Net802154MultiGateway.host[8].wrappedHost.mobility 	y 	500
scalar Net802154MultiGateway.host[8].wrappedHost.mobility 	z 	0
scalar Net802154MultiGateway.host[8].wrappedHost.mobility 	x 	573.20508075689
scalar Net802154MultiGateway.host[8].wrappedHost.mobility 	y 	500
scalar Net802154MultiGateway.host[8].wrappedHost.mobility 	z 	0
scalar Net802154MultiGateway.host[9].mobility 	x 	500
scalar Net802154MultiGateway.host[9].mobility 	y 	573.20508075689
scalar Net802154MultiGateway.host[9].mobility 	z 	0
scalar Net802154MultiGateway.host[9].wrappedHost.mobility 	x 	500
scalar Net802154MultiGateway.host[9].wrappedHost.mobility 	y 	573.20508075689
scalar Net802154MultiGateway.host[9].wrappedHost.mobility 	z 	0
scalar Net802154MultiGateway.host[9].wrappedHost.mobility 	x 	500
scalar Net802154MultiGateway.host[9].wrappedHost.mobility 	y 	573.20508075689
scalar Net802154MultiGateway.host[9].wrappedHost.mobility 	z 	0
scalar Net802154MultiGateway.host[10].mobility 	x 	400
scalar Net802154MultiGateway.host[10].mobility 	y 	600
scalar Net802154MultiGateway.host[10].mobility 	z 	0
scalar Net802154MultiGateway.host[10].wrappedHost.mobility 	x 	400
scalar Net802154MultiGateway.host[10].wrappedHost.mobility 	y 	600
scalar Net802154MultiGateway.host[10].wrappedHost.mobility 	z 	0
scalar Net802154MultiGateway.host[10].wrappedHost.mobility 	x 	400
scalar Net802154MultiGateway.host[10].wrappedHost.mobility 	y 	600
scalar Net802154MultiGateway.host[10].wrappedHost.mobility 	z 	0
scalar Net802154MultiGateway.host[11].mobility 	x 	300
scalar Net802154MultiGateway.host[11].mobility 	y 	573.20508075689
scalar Net802154MultiGateway.host[11].mobility 	z 	0
scalar Net802154MultiGateway.host[11].wrappedHost.mobility 	x 	300
scalar Net802154MultiGateway.host[11].wrappedHost.mobility 	y 	573.20508075689
scalar Net802154MultiGateway.host[11].wrappedHost.mobility 	z 	0
scalar Net802154MultiGateway.host[11].wrappedHost.mobility 	x 	300
scalar Net802154MultiGateway.host[11].wrappedHost.mobility 	y 	573.20508075689
scalar Net802154MultiGateway.host[11].wrappedHost.mobility 	z 	0
scalar Net802154MultiGateway.host[12].mobility 	x 	226.79491924311
scalar Net802154MultiGateway.host[12].mobility 	y 	500
scalar Net802154MultiGateway.host[12].mobility 	z 	0
scalar Net802154MultiGateway.host[12].wrappedHost.mobility 	x 	226.79491924311
scalar Net802154MultiGateway.host[12].wrappedHost.mobility 	y 	500
scalar Net802154MultiGateway.host[12].wrappedHost.mobility 	z 	0
scalar Net802154MultiGateway.host[12].wrappedHost.mobility 	x 	226.79491924311
scalar Net802154MultiGateway.host[12].wrappedHost.mobility 	y 	500
scalar Net802154MultiGateway.host[12].wrappedHost.mobility 	z 	0
scalar Net802154MultiGateway.host[13].mobility 	x 	200
scalar Net802154MultiGateway.host[13].mobility 	y 	400
scalar Net802154MultiGateway.host[13].mobility 	z 	0
scalar Net802154MultiGateway.host[13].wrappedHost.mobility 	x 	200
scalar Net802154MultiGateway.host[13].wrappedHost.mobility 	y 	400
scalar Net802154MultiGateway.host[13].wrappedHost.mobility 	z 	0
scalar Net802154MultiGateway.host[13].wrappedHost.mobility 	x 	200
scalar Net802154MultiGateway.host[13].wrappedHost.mobility 	y 	400
scalar Net802154MultiGateway.host[13].wrappedHost.mobility 	z 	0
scalar Net802154MultiGateway.host[14].mobility 	x 	226.79491924311
scalar Net802154MultiGateway.host[14].mobility 	y 	300
scalar Net802154MultiGateway.host[14].mobility 	z 	0
scalar Net802154MultiGateway.host[14].wrappedHost.mobility 	x 	226.79491924311
scalar Net802154MultiGateway.host[14].wrappedHost.mobility 	y 	300
scalar Net802154MultiGateway.host[14].wrappedHost.mobility 	z 	0
scalar Net802154MultiGateway.host[14].wrappedHost.mobility 	x 	226.79491924311
scalar Net802154MultiGateway.host[14].wrappedHost.mobility 	y 	300
scalar Net802154MultiGateway.host[14].wrappedHost.mobility 	z 	0
scalar Net802154MultiGateway.host[15].mobility 	x 	300
scalar Net802154MultiGateway.host[15].mobility 	y 	226.79491924311
scalar Net802154MultiGateway.host[15].mobility 	z 	0
scalar Net802154MultiGateway.host[15].wrappedHost.mobility 	x 	300
scalar Net802154MultiGateway.host[15].wrappedHost.mobility 	y 	226.79491924311
scalar Net802154MultiGateway.host[15].wrappedHost.mobility 	z 	0
scalar Net802154MultiGateway.host[15].wrappedHost.mobility 	x 	300
scalar Net802154MultiGateway.host[15].wrappedHost.mobility 	y 	226.79491924311
scalar Net802154MultiGateway.host[15].wrappedHost.mobility 	z 	0
scalar Net802154MultiGateway.host[16].mobility 	x 	400
scalar Net802154MultiGateway.host[16].mobility 	y 	200
scalar Net802154MultiGateway.host[16].mobility 	z 	0
scalar Net802154MultiGateway.host[16].wrappedHost.mobility 	x 	400
scalar Net802154MultiGateway.host[16].wrappedHost.mobility 	y 	200
scalar Net802154MultiGateway.host[16].wrappedHost.mobility 	z 	0
scalar Net802154MultiGateway.host[16].wrappedHost.mobility 	x 	400
scalar Net802154MultiGateway.host[16].wrappedHost.mobility 	y 	200
scalar Net802154MultiGateway.host[16].wrappedHost.mobility 	z 	0
scalar Net802154MultiGateway.host[17].mobility 	x 	500
scalar Net802154MultiGateway.host[17].mobility 	y 	226.79491924311
scalar Net802154MultiGateway.host[17].mobility 	z 	0
scalar Net802154MultiGateway.host[17].wrappedHost.mobility 	x 	500
scalar Net802154MultiGateway.host[17].wrappedHost.mobility 	y 	226.79491924311
scalar Net802154MultiGateway.host[17].wrappedHost.mobility 	z 	0
scalar Net802154MultiGateway.host[17].wrappedHost.mobility 	x 	500
scalar Net802154MultiGateway.host[17].wrappedHost.mobility 	y 	226.79491924311
scalar Net802154MultiGateway.host[17].wrappedHost.mobility 	z 	0
scalar Net802154MultiGateway.host[18].mobility 	x 	573.20508075689
scalar Net802154MultiGateway.host[18].mobility 	y 	300
scalar Net802154MultiGateway.host[18].mobility 	z 	0
scalar Net802154MultiGateway.host[18].wrappedHost.mobility 	x 	573.20508075689
scalar Net802154MultiGateway.host[18].wrappedHost.mobility 	y 	300
scalar Net802154MultiGateway.host[18].wrappedHost.mobility 	z 	0
scalar Net802154MultiGateway.host[18].wrappedHost.mobility 	x 	573.20508075689
scalar Net802154MultiGateway.host[18].wrappedHost.mobility 	y 	300
scalar Net802154MultiGateway.host[18].wrappedHost.mobility 	z 	0
scalar Net802154MultiGateway.host[19].mobility 	x 	700
scalar Net802154MultiGateway.host[19].mobility 	y 	400
scalar Net802154MultiGateway.host[19].mobility 	z 	0
scalar Net802154MultiGateway.host[19].wrappedHost.mobility 	x 	700
scalar Net802154MultiGateway.host[19].wrappedHost.mobility 	y 	400
scalar Net802154MultiGateway.host[19].wrappedHost.mobility 	z 	0
scalar Net802154MultiGateway.host[19].wrappedHost.mobility 	x 	700
scalar Net802154MultiGateway.host[19].wrappedHost.mobility 	y 	400
scalar Net802154MultiGateway.host[19].wrappedHost.mobility 	z 	0
scalar Net802154MultiGateway.host[20].mobility 	x 	681.90778623577
scalar Net802154MultiGateway.host[20].mobility 	y 	502.6060429977
scalar Net802154MultiGateway.host[20].mobility 	z 	0
scalar Net802154MultiGateway.host[20].wrappedHost.mobility 	x 	681.90778623577
scalar Net802154MultiGateway.host[20].wrappedHost.mobility 	y 	502.6060429977
scalar Net802154MultiGateway.host[20].wrappedHost.mobility 	z 	0
scalar Net802154MultiGateway.host[20].wrappedHost.mobility 	x 	681.90778623577
scalar Net802154MultiGateway.host[20].wrappedHost.mobility 	y 	502.6060429977
scalar Net802154MultiGateway.host[20].wrappedHost.mobility 	z 	0
scalar Net802154MultiGateway.host[21].mobility 	x 	629.81333293569
scalar Net802154MultiGateway.host[21].mobility 	y 	592.83628290596
scalar Net802154MultiGateway.host[21].mobility 	z 	0
scalar Net802154MultiGateway.host[21].wrappedHost.mobility 	x 	629.81333293569
scalar Net802154MultiGateway.host[21].wrappedHost.mobility 	y 	592.83628290596
scalar Net802154MultiGateway.host[21].wrappedHost.mobility 	z 	0
scalar Net802154MultiGateway.host[21].wrappedHost.mobility 	x 	629.81333293569
scalar Net802154MultiGateway.host[21].wrappedHost.mobility 	y 	592.83628290596
scalar Net802154MultiGateway.host[21].wrappedHost.mobility 	z 	0
scalar Net802154MultiGateway.host[22].mobility 	x 	550
scalar Net802154MultiGateway.host[22].mobility 	y 	659.80762113533
scalar Net802154MultiGateway.host[22].mobility 	z 	0
scalar Net802154MultiGateway.host[22].wrappedHost.mobility 	x 	550
scalar Net802154MultiGateway.host[22].wrappedHost.mobility 	y 	659.80762113533
scalar Net802154MultiGateway.host[22].wrappedHost.mobility 	z 	0
scalar Net802154MultiGateway.host[22].wrappedHost.mobility 	x 	550
scalar Net802154MultiGateway.host[22].wrappedHost.mobility 	y 	659.80762113533
scalar Net802154MultiGateway.host[22].wrappedHost.mobility 	z 	0
scalar Net802154MultiGateway.host[23].mobility 	x 	452.09445330008
scalar Net802154MultiGateway.host[23].mobility 	y 	695.44232590366
scalar Net802154MultiGateway.host[23].mobility 	z 	0
scalar Net802154MultiGateway.host[23].wrappedHost.mobility 	x 	452.09445330008
scalar Net802154MultiGateway.host[23].wrappedHost.mobility 	y 	695.44232590366
scalar Net802154MultiGateway.host[23].wrappedHost.mobility 	z 	0
scalar Net802154MultiGateway.host[23].wrappedHost.mobility 	x 	452.09445330008
scalar Net802154MultiGateway.host[23].wrappedHost.mobility 	y 	695.44232590366
scalar Net802154MultiGateway.host[23].wrappedHost.mobility 	z 	0
scalar Net802154MultiGateway.host[24].mobility 	x 	347.90554669992
scalar Net802154MultiGateway.host[24].mobility 	y 	695.44232590366
scalar Net802154MultiGateway.host[24].mobility 	z 	0
scalar Net802154MultiGateway.host[24].wrappedHost.mobility 	x 	347.90554669992
scalar Net802154MultiGateway.host[24].wrappedHost.mobility 	y 	695.44232590366
scalar Net802154MultiGateway.host[24].wrappedHost.mobility 	z 	0
scalar Net802154MultiGateway.host[24].wrappedHost.mobility 	x 	347.90554669992
scalar Net802154MultiGateway.host[24].wrappedHost.mobility 	y 	695.44232590366
scalar Net802154MultiGateway.host[24].wrappedHost.mobility 	z 	0
scalar Net802154MultiGateway.host[25].mobility 	x 	250
scalar Net802154MultiGateway.host[25].mobility 	y 	659.80762113533
scalar Net802154MultiGateway.host[25].mobility 	z 	0
scalar Net802154MultiGateway.host[25].wrappedHost.mobility 	x 	250
scalar Net802154MultiGateway.host[25].wrappedHost.mobility 	y 	659.80762113533
scalar Net802154MultiGateway.host[25].wrappedHost.mobility 	z 	0
scalar Net802154MultiGateway.host[25].wrappedHost.mobility 	x 	250
scalar Net802154MultiGateway.host[25].wrappedHost.mobility 	y 	659.80762113533
scalar Net802154MultiGateway.host[25].wrappedHost.mobility 	z 	0
scalar Net802154MultiGateway.host[26].mobility 	x 	170.18666706431
scalar Net802154MultiGateway.host[26].mobility 	y 	592.83628290596
scalar Net802154MultiGateway.host[26].mobility 	z 	0
scalar Net802154MultiGateway.host[26].wrappedHost.mobility 	x 	170.18666706431
scalar Net802154MultiGateway.host[26].wrappedHost.mobility 	y 	592.83628290596
scalar Net802154MultiGateway.host[26].wrappedHost.mobility 	z 	0
scalar Net802154MultiGateway.host[26].wrappedHost.mobility 	x 	170.18666706431
scalar Net802154MultiGateway.host[26].wrappedHost.mobility 	y 	592.83628290596
scalar Net802154MultiGateway.host[26].wrappedHost.mobility 	z 	0
scalar Net802154MultiGateway.host[27].mobility 	x 	118.09221376423
scalar Net802154MultiGateway.host[27].mobility 	y 	502.6060429977
scalar Net802154MultiGateway.host[27].mobility 	z 	0
scalar Net802154MultiGateway.host[27].wrappedHost.mobility 	x 	118.09221376423
scalar Net802154MultiGateway.host[27].wrappedHost.mobility 	y 	502.6060429977
scalar Net802154MultiGateway.host[27].wrappedHost.mobility 	z 	0
scalar Net802154MultiGateway.host[27].wrappedHost.mobility 	x 	118.09221376423
scalar Net802154MultiGateway.host[27].wrappedHost.mobility 	y 	502.6060429977
scalar Net802154MultiGateway.host[27].wrappedHost.mobility 	z 	0
scalar Net802154MultiGateway.host[28].mobility 	x 	100
scalar Net802154MultiGateway.host[28].mobility 	y 	400
scalar Net802154MultiGateway.host[28].mobility 	z 	0
scalar Net802154MultiGateway.host[28].wrappedHost.mobility 	x 	100
scalar Net802154MultiGateway.host[28].wrappedHost.mobility 	y 	400
scalar Net802154MultiGateway.host[28].wrappedHost.mobility 	z 	0
scalar Net802154MultiGateway.host[28].wrappedHost.mobility 	x 	100
scalar Net802154MultiGateway.host[28].wrappedHost.mobility 	y 	400
scalar Net802154MultiGateway.host[28].wrappedHost.mobility 	z 	0
scalar Net802154MultiGateway.host[29].mobility 	x 	118.09221376423
scalar Net802154MultiGateway.host[29].mobility 	y 	297.3939570023
scalar Net802154MultiGateway.host[29].mobility 	z 	0
scalar Net802154MultiGateway.host[29].wrappedHost.mobility 	x 	118.09221376423
scalar Net802154MultiGateway.host[29].wrappedHost.mobility 	y 	297.3939570023
scalar Net802154MultiGateway.host[29].wrappedHost.mobility 	z 	0
scalar Net802154MultiGateway.host[29].wrappedHost.mobility 	x 	118.09221376423
scalar Net802154MultiGateway.host[29].wrappedHost.mobility 	y 	297.3939570023
scalar Net802154MultiGateway.host[29].wrappedHost.mobility 	z 	0
scalar Net802154MultiGateway.host[30].mobility 	x 	170.18666706431
scalar Net802154MultiGateway.host[30].mobility 	y 	207.16371709404
scalar Net802154MultiGateway.host[30].mobility 	z 	0
scalar Net802154MultiGateway.host[30].wrappedHost.mobility 	x 	170.18666706431
scalar Net802154MultiGateway.host[30].wrappedHost.mobility 	y 	207.16371709404
scalar Net802154MultiGateway.host[30].wrappedHost.mobility 	z 	0
scalar Net802154MultiGateway.host[30].wrappedHost.mobility 	x 	170.18666706431
scalar Net802154MultiGateway.host[30].wrappedHost.mobility 	y 	207.16371709404
scalar Net802154MultiGateway.host[30].wrappedHost.mobility 	z 	0
scalar Net802154MultiGateway.host[31].mobility 	x 	250
scalar Net802154MultiGateway.host[31].mobility 	y 	140.19237886467
scalar Net802154MultiGateway.host[31].mobility 	z 	0
scalar Net802154MultiGateway.host[31].wrappedHost.mobility 	x 	250
scalar Net802154MultiGateway.host[31].wrappedHost.mobility 	y 	140.19237886467
scalar Net802154MultiGateway.host[31].wrappedHost.mobility 	z 	0
scalar Net802154MultiGateway.host[31].wrappedHost.mobility 	x 	250
scalar Net802154MultiGateway.host[31].wrappedHost.mobility 	y 	140.19237886467
scalar Net802154MultiGateway.host[31].wrappedHost.mobility 	z 	0
scalar Net802154MultiGateway.host[32].mobility 	x 	347.90554669992
scalar Net802154MultiGateway.host[32].mobility 	y 	104.55767409634
scalar Net802154MultiGateway.host[32].mobility 	z 	0
scalar Net802154MultiGateway.host[32].wrappedHost.mobility 	x 	347.90554669992
scalar Net802154MultiGateway.host[32].wrappedHost.mobility 	y 	104.55767409634
scalar Net802154MultiGateway.host[32].wrappedHost.mobility 	z 	0
scalar Net802154MultiGateway.host[32].wrappedHost.mobility 	x 	347.90554669992
scalar Net802154MultiGateway.host[32].wrappedHost.mobility 	y 	104.55767409634
scalar Net802154MultiGateway.host[32].wrappedHost.mobility 	z 	0
scalar Net802154MultiGateway.host[33].mobility 	x 	452.09445330008
scalar Net802154MultiGateway.host[33].mobility 	y 	104.55767409634
scalar Net802154MultiGateway.host[33].mobility 	z 	0
scalar Net802154MultiGateway.host[33].wrappedHost.mobility 	x 	452.09445330008
scalar Net802154MultiGateway.host[33].wrappedHost.mobility 	y 	104.55767409634
scalar Net802154MultiGateway.host[33].wrappedHost.mobility 	z 	0
scalar Net802154MultiGateway.host[33].wrappedHost.mobility 	x 	452.09445330008
scalar Net802154MultiGateway.host[33].wrappedHost.mobility 	y 	104.55767409634
scalar Net802154MultiGateway.host[33].wrappedHost.mobility 	z 	0
scalar Net802154MultiGateway.host[34].mobility 	x 	550
scalar Net802154MultiGateway.host[34].mobility 	y 	140.19237886467
scalar Net802154MultiGateway.host[34].mobility 	z 	0
scalar Net802154MultiGateway.host[34].wrappedHost.mobility 	x 	550
scalar Net802154MultiGateway.host[34].wrappedHost.mobility 	y 	140.19237886467
scalar Net802154MultiGateway.host[34].wrappedHost.mobility 	z 	0
scalar Net802154MultiGateway.host[34].wrappedHost.mobility 	x 	550
scalar Net802154MultiGateway.host[34].wrappedHost.mobility 	y 	140.19237886467
scalar Net802154MultiGateway.host[34].wrappedHost.mobility 	z 	0
scalar Net802154MultiGateway.host[35].mobility 	x 	629.81333293569
scalar Net802154MultiGateway.host[35].mobility 	y 	207.16371709404
scalar Net802154MultiGateway.host[35].mobility 	z 	0
scalar Net802154MultiGateway.host[35].wrappedHost.mobility 	x 	629.81333293569
scalar Net802154MultiGateway.host[35].wrappedHost.mobility 	y 	207.16371709404
scalar Net802154MultiGateway.host[35].wrappedHost.mobility 	z 	0
scalar Net802154MultiGateway.host[35].wrappedHost.mobility 	x 	629.81333293569
scalar Net802154MultiGateway.host[35].wrappedHost.mobility 	y 	207.16371709404
scalar Net802154MultiGateway.host[35].wrappedHost.mobility 	z 	0
scalar Net802154MultiGateway.host[36].mobility 	x 	681.90778623577
scalar Net802154MultiGateway.host[36].mobility 	y 	297.3939570023
scalar Net802154MultiGateway.host[36].mobility 	z 	0
scalar Net802154MultiGateway.host[36].wrappedHost.mobility 	x 	681.90778623577
scalar Net802154MultiGateway.host[36].wrappedHost.mobility 	y 	297.3939570023
scalar Net802154MultiGateway.host[36].wrappedHost.mobility 	z 	0
scalar Net802154MultiGateway.host[36].wrappedHost.mobility 	x 	681.90778623577
scalar Net802154MultiGateway.host[36].wrappedHost.mobility 	y 	297.3939570023
scalar Net802154MultiGateway.host[36].wrappedHost.mobility 	z 	0
scalar Net802154MultiGateway.host[37].mobility 	x 	800
scalar Net802154MultiGateway.host[37].mobility 	y 	400
scalar Net802154MultiGateway.host[37].mobility 	z 	0
scalar Net802154MultiGateway.host[37].wrappedHost.mobility 	x 	800
scalar Net802154MultiGateway.host[37].wrappedHost.mobility 	y 	400
scalar Net802154MultiGateway.host[37].wrappedHost.mobility 	z 	0
scalar Net802154MultiGateway.host[37].wrappedHost.mobility 	x 	800
scalar Net802154MultiGateway.host[37].wrappedHost.mobility 	y 	400
scalar Net802154MultiGateway.host[37].wrappedHost.mobility 	z 	0
scalar Net802154MultiGateway.host[38].mobility 	x 	787.43326445145
scalar Net802154MultiGateway.host[38].mobility 	y 	499.47595486594
scalar Net802154MultiGateway.host[38].mobility 	z 	0
scalar Net802154MultiGateway.host[38].wrappedHost.mobility 	x 	787.43326445145
scalar Net802154MultiGateway.host[38].wrappedHost.mobility 	y 	499.47595486594
scalar Net802154MultiGateway.host[38].wrappedHost.mobility 	z 	0
scalar Net802154MultiGateway.host[38].wrappedHost.mobility 	x 	787.43326445145
scalar Net802154MultiGateway.host[38].wrappedHost.mobility 	y 	499.47595486594
scalar Net802154MultiGateway.host[38].wrappedHost.mobility 	z 	0
scalar Net802154MultiGateway.host[39].mobility 	x 	750.52267201755
scalar Net802154MultiGateway.host[39].mobility 	y 	592.70146964069
scalar Net802154MultiGateway.host[39].mobility 	z 	0
scalar Net802154MultiGateway.host[39].wrappedHost.mobility 	x 	750.52267201755
scalar Net802154MultiGateway.host[39].wrappedHost.mobility 	y 	592.70146964069
scalar Net802154MultiGateway.host[39].wrappedHost.mobility 	z 	0
scalar Net802154MultiGateway.host[39].wrappedHost.mobility 	x 	750.52267201755
scalar Net802154MultiGateway.host[39].wrappedHost.mobility 	y 	592.70146964069
scalar Net802154MultiGateway.host[39].wrappedHost.mobility 	z 	0
scalar Net802154MultiGateway.host[40].mobility 	x 	691.58745096856
scalar Net802154MultiGateway.host[40].mobility 	y 	673.81884237148
scalar Net802154MultiGateway.host[40].mobility 	z 	0
scalar Net802154MultiGateway.host[40].wrappedHost.mobility 	x 	691.58745096856
scalar Net802154MultiGateway.host[40].wrappedHost.mobility 	y 	673.81884237148
scalar Net802154MultiGateway.host[40].wrappedHost.mobility 	z 	0
scalar Net802154MultiGateway.host[40].wrappedHost.mobility 	x 	691.58745096856
scalar Net802154MultiGateway.host[40].wrappedHost.mobility 	y 	673.81884237148
scalar Net802154MultiGateway.host[40].wrappedHost.mobility 	z 	0
scalar Net802154MultiGateway.host[41].mobility 	x 	614.3307179916
scalar Net802154MultiGateway.host[41].mobility 	y 	737.73117020081
scalar Net802154MultiGateway.host[41].mobility 	z 	0
scalar Net802154MultiGateway.host[41].wrappedHost.mobility 	x 	614.3307179916
scalar Net802154MultiGateway.host[41].wrappedHost.mobility 	y 	737.73117020081
scalar Net802154MultiGateway.host[41].wrappedHost.mobility 	z 	0
scalar Net802154MultiGateway.host[41].wrappedHost.mobility 	x 	614.3307179916
scalar Net802154MultiGateway.host[41].wrappedHost.mobility 	y 	737.73117020081
scalar Net802154MultiGateway.host[41].wrappedHost.mobility 	z 	0
scalar Net802154MultiGateway.host[42].mobility 	x 	523.60679774998
scalar Net802154MultiGateway.host[42].mobility 	y 	780.42260651806
scalar Net802154MultiGateway.host[42].mobility 	z 	0
scalar Net802154MultiGateway.host[42].wrappedHost.mobility 	x 	523.60679774998
scalar Net802154MultiGateway.host[42].wrappedHost.mobility 	y 	780.42260651806
scalar Net802154MultiGateway.host[42].wrappedHost.mobility 	z 	0
scalar Net802154MultiGateway.host[42].wrappedHost.mobility 	x 	523.60679774998
scalar Net802154MultiGateway.host[42].wrappedHost.mobility 	y 	780.42260651806
scalar Net802154MultiGateway.host[42].wrappedHost.mobility 	z 	0
scalar Net802154MultiGateway.host[43].mobility 	x 	425.11620781173
scalar Net802154MultiGateway.host[43].mobility 	y 	799.21069137131
scalar Net802154MultiGateway.host[43].mobility 	z 	0
scalar Net802154MultiGateway.host[43].wrappedHost.mobility 	x 	425.11620781173
scalar Net802154MultiGateway.host[43].wrappedHost.mobility 	y 	799.21069137131
scalar Net802154MultiGateway.host[43].wrappedHost.mobility 	z 	0
scalar Net802154MultiGateway.host[43].wrappedHost.mobility 	x 	425.11620781173
scalar Net802154MultiGateway.host[43].wrappedHost.mobility 	y 	799.21069137131
scalar Net802154MultiGateway.host[43].wrappedHost.mobility 	z 	0
scalar Net802154MultiGateway.host[44].mobility 	x 	325.04747416571
scalar Net802154MultiGateway.host[44].mobility 	y 	792.91490029148
scalar Net802154MultiGateway.host[44].mobility 	z 	0
scalar Net802154MultiGateway.host[44].wrappedHost.mobility 	x 	325.04747416571
scalar Net802154MultiGateway.host[44].wrappedHost.mobility 	y 	792.91490029148
scalar Net802154MultiGateway.host[44].wrappedHost.mobility 	z 	0
scalar Net802154MultiGateway.host[44].wrappedHost.mobility 	x 	325.04747416571
scalar Net802154MultiGateway.host[44].wrappedHost.mobility 	y 	792.91490029148
scalar Net802154MultiGateway.host[44].wrappedHost.mobility 	z 	0
scalar Net802154MultiGateway.host[45].mobility 	x 	229.68828337397
scalar Net802154MultiGateway.host[45].mobility 	y 	761.93082098641
scalar Net802154MultiGateway.host[45].mobility 	z 	0
scalar Net802154MultiGateway.host[45].wrappedHost.mobility 	x 	229.68828337397
scalar Net802154MultiGateway.host[45].wrappedHost.mobility 	y 	761.93082098641
scalar Net802154MultiGateway.host[45].wrappedHost.mobility 	z 	0
scalar Net802154MultiGateway.host[45].wrappedHost.mobility 	x 	229.68828337397
scalar Net802154MultiGateway.host[45].wrappedHost.mobility 	y 	761.93082098641
scalar Net802154MultiGateway.host[45].wrappedHost.mobility 	z 	0
scalar Net802154MultiGateway.host[46].mobility 	x 	145.03040410052
scalar Net802154MultiGateway.host[46].mobility 	y 	708.20529711032
scalar Net802154MultiGateway.host[46].mobility 	z 	0
scalar Net802154MultiGateway.host[46].wrappedHost.mobility 	x 	145.03040410052
scalar Net802154MultiGateway.host[46].wrappedHost.mobility 	y 	708.20529711032
scalar Net802154MultiGateway.host[46].wrappedHost.mobility 	z 	0
scalar Net802154MultiGateway.host[46].wrappedHost.mobility 	x 	145.03040410052
scalar Net802154MultiGateway.host[46].wrappedHost.mobility 	y 	708.20529711032
scalar Net802154MultiGateway.host[46].wrappedHost.mobility 	z 	0
scalar Net802154MultiGateway.host[47].mobility 	x 	76.393202250021
scalar Net802154MultiGateway.host[47].mobility 	y 	635.11410091699
scalar Net802154MultiGateway.host[47].mobility 	z 	0
scalar Net802154MultiGateway.host[47].wrappedHost.mobility 	x 	76.393202250021
scalar Net802154MultiGateway.host[47].wrappedHost.mobility 	y 	635.11410091699
scalar Net802154MultiGateway.host[47].wrappedHost.mobility 	z 	0
scalar Net802154MultiGateway.host[47].wrappedHost.mobility 	x 	76.393202250021
scalar Net802154MultiGateway.host[47].wrappedHost.mobility 	y 	635.11410091699
scalar Net802154MultiGateway.host[47].wrappedHost.mobility 	z 	0
scalar Net802154MultiGateway.host[48].mobility 	x 	28.089405644699
scalar Net802154MultiGateway.host[48].mobility 	y 	547.24982107387
scalar Net802154MultiGateway.host[48].mobility 	z 	0
scalar Net802154MultiGateway.host[48].wrappedHost.mobility 	x 	28.089405644699
scalar Net802154MultiGateway.host[48].wrappedHost.mobility 	y 	547.24982107387
scalar Net802154MultiGateway.host[48].wrappedHost.mobility 	z 	0
scalar Net802154MultiGateway.host[48].wrappedHost.mobility 	x 	28.089405644699
scalar Net802154MultiGateway.host[48].wrappedHost.mobility 	y 	547.24982107387
scalar Net802154MultiGateway.host[48].wrappedHost.mobility 	z 	0
scalar Net802154MultiGateway.host[49].mobility 	x 	3.1541194742089
scalar Net802154MultiGateway.host[49].mobility 	y 	450.13329342572
scalar Net802154MultiGateway.host[49].mobility 	z 	0
scalar Net802154MultiGateway.host[49].wrappedHost.mobility 	x 	3.1541194742089
scalar Net802154MultiGateway.host[49].wrappedHost.mobility 	y 	450.13329342572
scalar Net802154MultiGateway.host[49].wrappedHost.mobility 	z 	0
scalar Net802154MultiGateway.host[49].wrappedHost.mobility 	x 	3.1541194742089
scalar Net802154MultiGateway.host[49].wrappedHost.mobility 	y 	450.13329342572
scalar Net802154MultiGateway.host[49].wrappedHost.mobility 	z 	0
scalar Net802154MultiGateway.host[50].mobility 	x 	3.1541194742089
scalar Net802154MultiGateway.host[50].mobility 	y 	349.86670657428
scalar Net802154MultiGateway.host[50].mobility 	z 	0
scalar Net802154MultiGateway.host[50].wrappedHost.mobility 	x 	3.1541194742089
scalar Net802154MultiGateway.host[50].wrappedHost.mobility 	y 	349.86670657428
scalar Net802154MultiGateway.host[50].wrappedHost.mobility 	z 	0
scalar Net802154MultiGateway.host[50].wrappedHost.mobility 	x 	3.1541194742089
scalar Net802154MultiGateway.host[50].wrappedHost.mobility 	y 	349.86670657428
scalar Net802154MultiGateway.host[50].wrappedHost.mobility 	z 	0
scalar Net802154MultiGateway.host[51].mobility 	x 	28.0894056447
scalar Net802154MultiGateway.host[51].mobility 	y 	252.75017892613
scalar Net802154MultiGateway.host[51].mobility 	z 	0
scalar Net802154MultiGateway.host[51].wrappedHost.mobility 	x 	28.0894056447
scalar Net802154MultiGateway.host[51].wrappedHost.mobility 	y 	252.75017892613
scalar Net802154MultiGateway.host[51].wrappedHost.mobility 	z 	0
scalar Net802154MultiGateway.host[51].wrappedHost.mobility 	x 	28.0894056447
scalar Net802154MultiGateway.host[51].wrappedHost.mobility 	y 	252.75017892613
scalar Net802154MultiGateway.host[51].wrappedHost.mobility 	z 	0
scalar Net802154MultiGateway.host[52].mobility 	x 	76.393202250021
scalar Net802154MultiGateway.host[52].mobility 	y 	164.88589908301
scalar Net802154MultiGateway.host[52].mobility 	z 	0
scalar Net802154MultiGateway.host[52].wrappedHost.mobility 	x 	76.393202250021
scalar Net802154MultiGateway.host[52].wrappedHost.mobility 	y 	164.88589908301
scalar Net802154MultiGateway.host[52].wrappedHost.mobility 	z 	0
scalar Net802154MultiGateway.host[52].wrappedHost.mobility 	x 	76.393202250021
scalar Net802154MultiGateway.host[52].wrappedHost.mobility 	y 	164.88589908301
scalar Net802154MultiGateway.host[52].wrappedHost.mobility 	z 	0
scalar Net802154MultiGateway.host[53].mobility 	x 	145.03040410052
scalar Net802154MultiGateway.host[53].mobility 	y 	91.794702889684
scalar Net802154MultiGateway.host[53].mobility 	z 	0
scalar Net802154MultiGateway.host[53].wrappedHost.mobility 	x 	145.03040410052
scalar Net802154MultiGateway.host[53].wrappedHost.mobility 	y 	91.794702889684
scalar Net802154MultiGateway.host[53].wrappedHost.mobility 	z 	0
scalar Net802154MultiGateway.host[53].wrappedHost.mobility 	x 	145.03040410052
scalar Net802154MultiGateway.host[53].wrappedHost.mobility 	y 	91.794702889684
scalar Net802154MultiGateway.host[53].wrappedHost.mobility 	z 	0
scalar Net802154MultiGateway.host[54].mobility 	x 	229.68828337397
scalar Net802154MultiGateway.host[54].mobility 	y 	38.069179013592
scalar Net802154MultiGateway.host[54].mobility 	z 	0
scalar Net802154MultiGateway.host[54].wrappedHost.mobility 	x 	229.68828337397
scalar Net802154MultiGateway.host[54].wrappedHost.mobility 	y 	38.069179013592
scalar Net802154MultiGateway.host[54].wrappedHost.mobility 	z 	0
scalar Net802154MultiGateway.host[54].wrappedHost.mobility 	x 	229.68828337397
scalar Net802154MultiGateway.host[54].wrappedHost.mobility 	y 	38.069179013592
scalar Net802154MultiGateway.host[54].wrappedHost.mobility 	z 	0
scalar Net802154MultiGateway.host[55].mobility 	x 	325.04747416571
scalar Net802154MultiGateway.host[55].mobility 	y 	7.0850997085245
scalar Net802154MultiGateway.host[55].mobility 	z 	0
scalar Net802154MultiGateway.host[55].wrappedHost.mobility 	x 	325.04747416571
scalar Net802154MultiGateway.host[55].wrappedHost.mobility 	y 	7.0850997085245
scalar Net802154MultiGateway.host[55].wrappedHost.mobility 	z 	0
scalar Net802154MultiGateway.host[55].wrappedHost.mobility 	x 	325.04747416571
scalar Net802154MultiGateway.host[55].wrappedHost.mobility 	y 	7.0850997085245
scalar Net802154MultiGateway.host[55].wrappedHost.mobility 	z 	0
scalar Net802154MultiGateway.host[56].mobility 	x 	425.11620781173
scalar Net802154MultiGateway.host[56].mobility 	y 	0.7893086286914
scalar Net802154MultiGateway.host[56].mobility 	z 	0
scalar Net802154MultiGateway.host[56].wrappedHost.mobility 	x 	425.11620781173
scalar Net802154MultiGateway.host[56].wrappedHost.mobility 	y 	0.7893086286914
scalar Net802154MultiGateway.host[56].wrappedHost.mobility 	z 	0
scalar Net802154MultiGateway.host[56].wrappedHost.mobility 	x 	425.11620781173
scalar Net802154MultiGateway.host[56].wrappedHost.mobility 	y 	0.7893086286914
scalar Net802154MultiGateway.host[56].wrappedHost.mobility 	z 	0
scalar Net802154MultiGateway.host[57].mobility 	x 	523.60679774998
scalar Net802154MultiGateway.host[57].mobility 	y 	19.577393481939
scalar Net802154MultiGateway.host[57].mobility 	z 	0
scalar Net802154MultiGateway.host[57].wrappedHost.mobility 	x 	523.60679774998
scalar Net802154MultiGateway.host[57].wrappedHost.mobility 	y 	19.577393481939
scalar Net802154MultiGateway.host[57].wrappedHost.mobility 	z 	0
scalar Net802154MultiGateway.host[57].wrappedHost.mobility 	x 	523.60679774998
scalar Net802154MultiGateway.host[57].wrappedHost.mobility 	y 	19.577393481939
scalar Net802154MultiGateway.host[57].wrappedHost.mobility 	z 	0
scalar Net802154MultiGateway.host[58].mobility 	x 	614.3307179916
scalar Net802154MultiGateway.host[58].mobility 	y 	62.268829799194
scalar Net802154MultiGateway.host[58].mobility 	z 	0
scalar Net802154MultiGateway.host[58].wrappedHost.mobility 	x 	614.3307179916
scalar Net802154MultiGateway.host[58].wrappedHost.mobility 	y 	62.268829799194
scalar Net802154MultiGateway.host[58].wrappedHost.mobility 	z 	0
scalar Net802154MultiGateway.host[58].wrappedHost.mobility 	x 	614.3307179916
scalar Net802154MultiGateway.host[58].wrappedHost.mobility 	y 	62.268829799194
scalar Net802154MultiGateway.host[58].wrappedHost.mobility 	z 	0
scalar Net802154MultiGateway.host[59].mobility 	x 	691.58745096856
scalar Net802154MultiGateway.host[59].mobility 	y 	126.18115762852
scalar Net802154MultiGateway.host[59].mobility 	z 	0
scalar Net802154MultiGateway.host[59].wrappedHost.mobility 	x 	691.58745096856
scalar Net802154MultiGateway.host[59].wrappedHost.mobility 	y 	126.18115762852
scalar Net802154MultiGateway.host[59].wrappedHost.mobility 	z 	0
scalar Net802154MultiGateway.host[59].wrappedHost.mobility 	x 	691.58745096856
scalar Net802154MultiGateway.host[59].wrappedHost.mobility 	y 	126.18115762852
scalar Net802154MultiGateway.host[59].wrappedHost.mobility 	z 	0
scalar Net802154MultiGateway.host[60].mobility 	x 	750.52267201755
scalar Net802154MultiGateway.host[60].mobility 	y 	207.29853035931
scalar Net802154MultiGateway.host[60].mobility 	z 	0
scalar Net802154MultiGateway.host[60].wrappedHost.mobility 	x 	750.52267201755
scalar Net802154MultiGateway.host[60].wrappedHost.mobility 	y 	207.29853035931
scalar Net802154MultiGateway.host[60].wrappedHost.mobility 	z 	0
scalar Net802154MultiGateway.host[60].wrappedHost.mobility 	x 	750.52267201755
scalar Net802154MultiGateway.host[60].wrappedHost.mobility 	y 	207.29853035931
scalar Net802154MultiGateway.host[60].wrappedHost.mobility 	z 	0
scalar Net802154MultiGateway.host[61].mobility 	x 	787.43326445145
scalar Net802154MultiGateway.host[61].mobility 	y 	300.52404513406
scalar Net802154MultiGateway.host[61].mobility 	z 	0
scalar Net802154MultiGateway.host[61].wrappedHost.mobility 	x 	787.43326445145
scalar Net802154MultiGateway.host[61].wrappedHost.mobility 	y 	300.52404513406
scalar Net802154MultiGateway.host[61].wrappedHost.mobility 	z 	0
scalar Net802154MultiGateway.host[61].wrappedHost.mobility 	x 	787.43326445145
scalar Net802154MultiGateway.host[61].wrappedHost.mobility 	y 	300.52404513406
scalar Net802154MultiGateway.host[61].wrappedHost.mobility 	z 	0
scalar Net802154MultiGateway.host[0].wrappedHost.lo[0].lo 	droppedPkBitError:count 	0
attr interpolationmode  none
attr source  dropPkBitError
attr title  "packets dropped/bit error, count"
scalar Net802154MultiGateway.host[0].wrappedHost.lo[0].lo 	droppedPkBitError:sum(packetBytes) 	0
attr interpolationmode  none
attr source  dropPkBitError
attr title  "packets dropped/bit error, sum(packetBytes)"
scalar Net802154MultiGateway.host[0].wrappedHost.lo[0].lo 	rcvdPkFromHL:count 	0
attr interpolationmode  none
attr source  packetReceivedFromUpper
attr title  "packets received from higher layer, count"
scalar Net802154MultiGateway.host[0].wrappedHost.lo[0].lo 	rcvdPkFromHL:sum(packetBytes) 	0
attr interpolationmode  none
attr source  packetReceivedFromUpper
attr title  "packets received from higher layer, sum(packetBytes)"
scalar Net802154MultiGateway.host[0].wrappedHost.lo[0].lo 	passedUpPk:count 	0
attr interpolationmode  none
attr source  packetSentToUpper
attr title  "packets passed to higher layer, count"
scalar Net802154MultiGateway.host[0].wrappedHost.lo[0].lo 	passedUpPk:sum(packetBytes) 	0
attr interpolationmode  none
attr source  packetSentToUpper
attr title  "packets passed to higher layer, sum(packetBytes)"
scalar Net802154MultiGateway.host[0].wrappedHost.wlan[0].mac 	numUpperPacketsForCAP 	890
scalar Net802154MultiGateway.host[0].wrappedHost.wlan[0].mac 	numUpperPacketsForGTS 	0
scalar Net802154MultiGateway.host[0].wrappedHost.wlan[0].mac 	numUpperPacketsDroppedFullQueue 	0
scalar Net802154MultiGateway.host[0].wrappedHost.wlan[0].mac 	unicastDataSentDown:count 	0
attr interpolationmode  none
attr source  unicastDataSentDown
attr title  "unicast packet sent down of type DATA, count"
scalar Net802154MultiGateway.host[0].wrappedHost.wlan[0].mac 	broadDataSentDown:count 	45
attr interpolationmode  none
attr source  broadcastDataSentDown
attr title  "broadcast packet sent down of type DATA, count"
scalar Net802154MultiGateway.host[0].wrappedHost.wlan[0].radio 	transmissionState:count 	60840
attr interpolationmode  sample-hold
attr source  transmissionStateChanged
attr title  "Radio transmission state, count"
scalar Net802154MultiGateway.host[0].wrappedHost.wlan[0].radio 	receptionState:count 	64303
attr interpolationmode  sample-hold
attr source  receptionStateChanged
attr title  "Radio reception state, count"
scalar Net802154MultiGateway.host[0].wrappedHost.wlan[0].radio 	radioMode:count 	30422
attr interpolationmode  sample-hold
attr source  radioModeChanged
attr title  "Radio mode, count"
scalar Net802154MultiGateway.host[0].wrappedHost.udp 	droppedPkBadChecksum:count 	0
attr interpolationmode  none
attr title  "packets dropped (checksum error), count"
scalar Net802154MultiGateway.host[0].wrappedHost.udp 	droppedPkWrongPort:count 	0
attr interpolationmode  none
attr title  "packets dropped (wrong port), count"
scalar Net802154MultiGateway.host[0].wrappedHost.udp 	passedUpPk:count 	0
attr interpolationmode  none
attr title  "packets passed up, count"
scalar Net802154MultiGateway.host[0].wrappedHost.udp 	rcvdPk:count 	0
attr interpolationmode  none
attr source  rcvdPk
attr title  "packets received, count"
scalar Net802154MultiGateway.host[0].wrappedHost.udp 	rcvdPk:sum(packetBytes) 	0
attr interpolationmode  none
attr source  rcvdPk
attr title  "packets received, sum(packetBytes)"
scalar Net802154MultiGateway.host[0].wrappedHost.udp 	sentPk:count 	0
attr interpolationmode  none
attr source  sentPk
attr title  "packets sent, count"
scalar Net802154MultiGateway.host[0].wrappedHost.udp 	sentPk:sum(packetBytes) 	0
attr interpolationmode  none
attr source  sentPk
attr title  "packets sent, sum(packetBytes)"
scalar Net802154MultiGateway.host[0].wrappedHost.trafficgen 	rcvdPkFrom-host[61]:count 	100
scalar Net802154MultiGateway.host[0].wrappedHost.trafficgen 	rcvdPkFrom-host[60]:count 	100
scalar Net802154MultiGateway.host[0].wrappedHost.trafficgen 	rcvdPkFrom-host[59]:count 	100
scalar Net802154MultiGateway.host[0].wrappedHost.trafficgen 	rcvdPkFrom-host[58]:count 	100
scalar Net802154MultiGateway.host[0].wrappedHost.trafficgen 	rcvdPkFrom-host[57]:count 	100
scalar Net802154MultiGateway.host[0].wrappedHost.trafficgen 	rcvdPkFrom-host[56]:count 	100
scalar Net802154MultiGateway.host[0].wrappedHost.trafficgen 	rcvdPkFrom-host[55]:count 	100
scalar Net802154MultiGateway.host[0].wrappedHost.trafficgen 	rcvdPkFrom-host[54]:count 	100
scalar Net802154MultiGateway.host[0].wrappedHost.trafficgen 	rcvdPkFrom-host[53]:count 	100
scalar Net802154MultiGateway.host[0].wrappedHost.trafficgen 	rcvdPkFrom-host[52]:count 	100
scalar Net802154MultiGateway.host[0].wrappedHost.trafficgen 	rcvdPkFrom-host[51]:count 	100
scalar Net802154MultiGateway.host[0].wrappedHost.trafficgen 	rcvdPkFrom-host[50]:count 	100
scalar Net802154MultiGateway.host[0].wrappedHost.trafficgen 	rcvdPkFrom-host[49]:count 	100
scalar Net802154MultiGateway.host[0].wrappedHost.trafficgen 	rcvdPkFrom-host[48]:count 	100
scalar Net802154MultiGateway.host[0].wrappedHost.trafficgen 	rcvdPkFrom-host[47]:count 	100
scalar Net802154MultiGateway.host[0].wrappedHost.trafficgen 	rcvdPkFrom-host[46]:count 	100
scalar Net802154MultiGateway.host[0].wrappedHost.trafficgen 	rcvdPkFrom-host[45]:count 	100
scalar Net802154MultiGateway.host[0].wrappedHost.trafficgen 	rcvdPkFrom-host[44]:count 	100
scalar Net802154MultiGateway.host[0].wrappedHost.trafficgen 	rcvdPkFrom-host[43]:count 	100
scalar Net802154MultiGateway.host[0].wrappedHost.trafficgen 	rcvdPkFrom-host[42]:count 	100
scalar Net802154MultiGateway.host[0].wrappedHost.trafficgen 	rcvdPkFrom-host[41]:count 	100
scalar Net802154MultiGateway.host[0].wrappedHost.trafficgen 	rcvdPkFrom-host[40]:count 	100
scalar Net802154MultiGateway.host[0].wrappedHost.trafficgen 	rcvdPkFrom-host[39]:count 	100
scalar Net802154MultiGateway.host[0].wrappedHost.trafficgen 	rcvdPkFrom-host[38]:count 	100
scalar Net802154MultiGateway.host[0].wrappedHost.trafficgen 	rcvdPkFrom-host[37]:count 	100
scalar Net802154MultiGateway.host[0].wrappedHost.trafficgen 	rcvdPkFrom-host[36]:count 	100
scalar Net802154MultiGateway.host[0].wrappedHost.trafficgen 	rcvdPkFrom-host[35]:count 	100
scalar Net802154MultiGateway.host[0].wrappedHost.trafficgen 	rcvdPkFrom-host[34]:count 	100
scalar Net802154MultiGateway.host[0].wrappedHost.trafficgen 	rcvdPkFrom-host[33]:count 	100
scalar Net802154MultiGateway.host[0].wrappedHost.trafficgen 	rcvdPkFrom-host[32]:count 	100
scalar Net802154MultiGateway.host[0].wrappedHost.trafficgen 	rcvdPkFrom-host[31]:count 	100
scalar Net802154MultiGateway.host[0].wrappedHost.trafficgen 	rcvdPkFrom-host[30]:count 	100
scalar Net802154MultiGateway.host[0].wrappedHost.trafficgen 	rcvdPkFrom-host[29]:count 	100
scalar Net802154MultiGateway.host[0].wrappedHost.trafficgen 	rcvdPkFrom-host[28]:count 	100
scalar Net802154MultiGateway.host[0].wrappedHost.trafficgen 	rcvdPkFrom-host[27]:count 	100
scalar Net802154MultiGateway.host[0].wrappedHost.trafficgen 	rcvdPkFrom-host[26]:count 	100
scalar Net802154MultiGateway.host[0].wrappedHost.trafficgen 	rcvdPkFrom-host[25]:count 	100
scalar Net802154MultiGateway.host[0].wrappedHost.trafficgen 	rcvdPkFrom-host[24]:count 	100
scalar Net802154MultiGateway.host[0].wrappedHost.trafficgen 	rcvdPkFrom-host[23]:count 	100
scalar Net802154MultiGateway.host[0].wrappedHost.trafficgen 	rcvdPkFrom-host[22]:count 	100
scalar Net802154MultiGateway.host[0].wrappedHost.trafficgen 	rcvdPkFrom-host[21]:count 	100
scalar Net802154MultiGateway.host[0].wrappedHost.trafficgen 	rcvdPkFrom-host[20]:count 	100
scalar Net802154MultiGateway.host[0].wrappedHost.trafficgen 	rcvdPkFrom-host[19]:count 	100
scalar Net802154MultiGateway.host[0].wrappedHost.trafficgen 	rcvdPkFrom-host[18]:count 	100
scalar Net802154MultiGateway.host[0].wrappedHost.trafficgen 	rcvdPkFrom-host[17]:count 	100
scalar Net802154MultiGateway.host[0].wrappedHost.trafficgen 	rcvdPkFrom-host[16]:count 	100
scalar Net802154MultiGateway.host[0].wrappedHost.trafficgen 	rcvdPkFrom-host[15]:count 	100
scalar Net802154MultiGateway.host[0].wrappedHost.trafficgen 	rcvdPkFrom-host[14]:count 	100
scalar Net802154MultiGateway.host[0].wrappedHost.trafficgen 	rcvdPkFrom-host[13]:count 	100
scalar Net802154MultiGateway.host[0].wrappedHost.trafficgen 	rcvdPkFrom-host[12]:count 	100
scalar Net802154MultiGateway.host[0].wrappedHost.trafficgen 	rcvdPkFrom-host[11]:count 	100
scalar Net802154MultiGateway.host[0].wrappedHost.trafficgen 	rcvdPkFrom-host[10]:count 	100
scalar Net802154MultiGateway.host[0].wrappedHost.trafficgen 	rcvdPkFrom-host[9]:count 	100
scalar Net802154MultiGateway.host[0].wrappedHost.trafficgen 	rcvdPkFrom-host[8]:count 	100
scalar Net802154MultiGateway.host[0].wrappedHost.trafficgen 	rcvdPkFrom-host[7]:count 	100
scalar Net802154MultiGateway.host[0].wrappedHost.trafficgen 	rcvdPkFrom-host[6]:count 	100
scalar Net802154MultiGateway.host[0].wrappedHost.trafficgen 	rcvdPkFrom-host[5]:count 	100
scalar Net802154MultiGateway.host[0].wrappedHost.trafficgen 	rcvdPkFrom-host[4]:count 	100
scalar Net802154MultiGateway.host[0].wrappedHost.trafficgen 	rcvdPkFrom-host[3]:count 	100
scalar Net802154MultiGateway.host[0].wrappedHost.trafficgen 	rcvdPkFrom-host[2]:count 	100
scalar Net802154MultiGateway.host[0].wrappedHost.trafficgen 	rcvdPkFrom-host[1]:count 	100
scalar Net802154MultiGateway.host[0].wrappedHost.trafficgen 	sentDummyPk:count 	214
attr interpolationmode  none
attr source  sentDummyPk
attr title  "dummy packets sent, count"
scalar Net802154MultiGateway.host[0].wrappedHost.trafficgen 	sinkRcvdPk:count 	0
attr interpolationmode  none
attr source  sinkRcvdPk
attr title  "own packets received by sink, count"
scalar Net802154MultiGateway.host[0].wrappedHost.trafficgen 	sinkRcvdPkDelay:mean 	-nan
attr interpolationmode  none
attr source  messageAge(sinkRcvdPk)
attr title  "delay of own packets received by sink, mean"
scalar Net802154MultiGateway.host[0].wrappedHost.trafficgen 	sinkRcvdPkDelay:max 	-nan
attr interpolationmode  none
attr source  messageAge(sinkRcvdPk)
attr title  "delay of own packets received by sink, max"
scalar Net802154MultiGateway.host[0].wrappedHost.trafficgen 	PRR:last 	-nan
attr interpolationmode  none
attr source  count(sinkRcvdPk)/count(sentPk)
attr title  "PRR, last"
scalar Net802154MultiGateway.host[0].wrappedHost.trafficgen 	rcvdPk:count 	6100
attr interpolationmode  none
attr source  rcvdPk
attr title  "packets received, count"
scalar Net802154MultiGateway.host[0].wrappedHost.trafficgen 	rcvdPk:sum(packetBytes) 	463600
attr interpolationmode  none
attr source  rcvdPk
attr title  "packets received, sum(packetBytes)"
statistic Net802154MultiGateway.host[0].wrappedHost.trafficgen 	endToEndDelay:histogram
field count 6100
field mean 1.0018485189721
field stddev 0.81005169252693
field sum 6111.27596573
field sqrsum 10124.637433403
field min 0.005360912522
field max 14.255727580716
attr interpolationmode  none
attr source  messageAge(rcvdPk)
attr title  "end-to-end delay, histogram"
attr unit  s
bin	-INF	0
bin	-1.1812333384725	0
bin	-1.0186178070819	0
bin	-0.8560022756913	0
bin	-0.6933867443007	0
bin	-0.5307712129101	0
bin	-0.3681556815195	0
bin	-0.2055401501289	0
bin	-0.0429246187383	289
bin	0.1196909126523	546
bin	0.2823064440429	645
bin	0.4449219754335	702
bin	0.6075375068241	643
bin	0.7701530382147	597
bin	0.9327685696053	571
bin	1.0953841009959	437
bin	1.2579996323865	327
bin	1.4206151637771	262
bin	1.5832306951677	236
bin	1.7458462265583	158
bin	1.9084617579489	142
bin	2.0710772893395	123
bin	2.2336928207301	102
bin	2.3963083521207	71
bin	2.5589238835113	54
bin	2.7215394149019	37
bin	2.8841549462925	30
bin	3.0467704776831	25
bin	3.2093860090737	25
bin	3.3720015404643	11
bin	3.5346170718549	11
bin	3.6972326032455	56
scalar Net802154MultiGateway.host[0].wrappedHost.trafficgen 	sentPk:count 	0
attr interpolationmode  none
attr source  sentPk
attr title  "packets sent, count"
scalar Net802154MultiGateway.host[0].wrappedHost.trafficgen 	sentPk:sum(packetBytes) 	0
attr interpolationmode  none
attr source  sentPk
attr title  "packets sent, sum(packetBytes)"
scalar Net802154MultiGateway.host[1].wrappedHost.lo[0].lo 	droppedPkBitError:count 	0
attr interpolationmode  none
attr source  dropPkBitError
attr title  "packets dropped/bit error, count"
scalar Net802154MultiGateway.host[1].wrappedHost.lo[0].lo 	droppedPkBitError:sum(packetBytes) 	0
attr interpolationmode  none
attr source  dropPkBitError
attr title  "packets dropped/bit error, sum(packetBytes)"
scalar Net802154MultiGateway.host[1].wrappedHost.lo[0].lo 	rcvdPkFromHL:count 	0
attr interpolationmode  none
attr source  packetReceivedFromUpper
attr title  "packets received from higher layer, count"
scalar Net802154MultiGateway.host[1].wrappedHost.lo[0].lo 	rcvdPkFromHL:sum(packetBytes) 	0
attr interpolationmode  none
attr source  packetReceivedFromUpper
attr title  "packets received from higher layer, sum(packetBytes)"
scalar Net802154MultiGateway.host[1].wrappedHost.lo[0].lo 	passedUpPk:count 	0
attr interpolationmode  none
attr source  packetSentToUpper
attr title  "packets passed to higher layer, count"
scalar Net802154MultiGateway.host[1].wrappedHost.lo[0].lo 	passedUpPk:sum(packetBytes) 	0
attr interpolationmode  none
attr source  packetSentToUpper
attr title  "packets passed to higher layer, sum(packetBytes)"
scalar Net802154MultiGateway.host[1].wrappedHost.wlan[0].mac 	numUpperPacketsForCAP 	393
scalar Net802154MultiGateway.host[1].wrappedHost.wlan[0].mac 	numUpperPacketsForGTS 	2386
scalar Net802154MultiGateway.host[1].wrappedHost.wlan[0].mac 	numUpperPacketsDroppedFullQueue 	0
scalar Net802154MultiGateway.host[1].wrappedHost.wlan[0].mac 	unicastDataSentDown:count 	2384
attr interpolationmode  none
attr source  unicastDataSentDown
attr title  "unicast packet sent down of type DATA, count"
scalar Net802154MultiGateway.host[1].wrappedHost.wlan[0].mac 	broadDataSentDown:count 	44
attr interpolationmode  none
attr source  broadcastDataSentDown
attr title  "broadcast packet sent down of type DATA, count"
scalar Net802154MultiGateway.host[1].wrappedHost.wlan[0].radio 	transmissionState:count 	20396
attr interpolationmode  sample-hold
attr source  transmissionStateChanged
attr title  "Radio transmission state, count"
scalar Net802154MultiGateway.host[1].wrappedHost.wlan[0].radio 	receptionState:count 	34459
attr interpolationmode  sample-hold
attr source  receptionStateChanged
attr title  "Radio reception state, count"
scalar Net802154MultiGateway.host[1].wrappedHost.wlan[0].radio 	radioMode:count 	10200
attr interpolationmode  sample-hold
attr source  radioModeChanged
attr title  "Radio mode, count"
scalar Net802154MultiGateway.host[1].wrappedHost.udp 	droppedPkBadChecksum:count 	0
attr interpolationmode  none
attr title  "packets dropped (checksum error), count"
scalar Net802154MultiGateway.host[1].wrappedHost.udp 	droppedPkWrongPort:count 	0
attr interpolationmode  none
attr title  "packets dropped (wrong port), count"
scalar Net802154MultiGateway.host[1].wrappedHost.udp 	passedUpPk:count 	0
attr interpolationmode  none
attr title  "packets passed up, count"
scalar Net802154MultiGateway.host[1].wrappedHost.udp 	rcvdPk:count 	0
attr interpolationmode  none
attr source  rcvdPk
attr title  "packets received, count"
scalar Net802154MultiGateway.host[1].wrappedHost.udp 	rcvdPk:sum(packetBytes) 	0
attr interpolationmode  none
attr source  rcvdPk
attr title  "packets received, sum(packetBytes)"
scalar Net802154MultiGateway.host[1].wrappedHost.udp 	sentPk:count 	0
attr interpolationmode  none
attr source  sentPk
attr title  "packets sent, count"
scalar Net802154MultiGateway.host[1].wrappedHost.udp 	sentPk:sum(packetBytes) 	0
attr interpolationmode  none
attr source  sentPk
attr title  "packets sent, sum(packetBytes)"
scalar Net802154MultiGateway.host[1].wrappedHost.trafficgen 	sentDummyPk:count 	117
attr interpolationmode  none
attr source  sentDummyPk
attr title  "dummy packets sent, count"
scalar Net802154MultiGateway.host[1].wrappedHost.trafficgen 	sinkRcvdPk:count 	100
attr interpolationmode  none
attr source  sinkRcvdPk
attr title  "own packets received by sink, count"
scalar Net802154MultiGateway.host[1].wrappedHost.trafficgen 	sinkRcvdPkDelay:mean 	0.24884468424094
attr interpolationmode  none
attr source  messageAge(sinkRcvdPk)
attr title  "delay of own packets received by sink, mean"
scalar Net802154MultiGateway.host[1].wrappedHost.trafficgen 	sinkRcvdPkDelay:max 	1.043327904676
attr interpolationmode  none
attr source  messageAge(sinkRcvdPk)
attr title  "delay of own packets received by sink, max"
scalar Net802154MultiGateway.host[1].wrappedHost.trafficgen 	PRR:last 	1
attr interpolationmode  none
attr source  count(sinkRcvdPk)/count(sentPk)
attr title  "PRR, last"
scalar Net802154MultiGateway.host[1].wrappedHost.trafficgen 	rcvdPk:count 	0
attr interpolationmode  none
attr source  rcvdPk
attr title  "packets received, count"
scalar Net802154MultiGateway.host[1].wrappedHost.trafficgen 	rcvdPk:sum(packetBytes) 	0
attr interpolationmode  none
attr source  rcvdPk
attr title  "packets received, sum(packetBytes)"
statistic Net802154MultiGateway.host[1].wrappedHost.trafficgen 	endToEndDelay:histogram
field count 0
field mean -nan
field stddev -nan
field sum 0
field sqrsum 0
field min -nan
field max -nan
attr interpolationmode  none
attr source  messageAge(rcvdPk)
attr title  "end-to-end delay, histogram"
attr unit  s
bin	-INF	0
bin	-0.5	0
bin	-0.46666666666667	0
bin	-0.43333333333333	0
bin	-0.4	0
bin	-0.36666666666667	0
bin	-0.33333333333333	0
bin	-0.3	0
bin	-0.26666666666667	0
bin	-0.23333333333333	0
bin	-0.2	0
bin	-0.16666666666667	0
bin	-0.13333333333333	0
bin	-0.1	0
bin	-0.066666666666667	0
bin	-0.033333333333333	0
bin	0	0
bin	0.033333333333333	0
bin	0.066666666666667	0
bin	0.1	0
bin	0.13333333333333	0
bin	0.16666666666667	0
bin	0.2	0
bin	0.23333333333333	0
bin	0.26666666666667	0
bin	0.3	0
bin	0.33333333333333	0
bin	0.36666666666667	0
bin	0.4	0
bin	0.43333333333333	0
bin	0.46666666666667	0
bin	0.5	0
scalar Net802154MultiGateway.host[1].wrappedHost.trafficgen 	sentPk:count 	100
attr interpolationmode  none
attr source  sentPk
attr title  "packets sent, count"
scalar Net802154MultiGateway.host[1].wrappedHost.trafficgen 	sentPk:sum(packetBytes) 	7600
attr interpolationmode  none
attr source  sentPk
attr title  "packets sent, sum(packetBytes)"
scalar Net802154MultiGateway.host[2].wrappedHost.lo[0].lo 	droppedPkBitError:count 	0
attr interpolationmode  none
attr source  dropPkBitError
attr title  "packets dropped/bit error, count"
scalar Net802154MultiGateway.host[2].wrappedHost.lo[0].lo 	droppedPkBitError:sum(packetBytes) 	0
attr interpolationmode  none
attr source  dropPkBitError
attr title  "packets dropped/bit error, sum(packetBytes)"
scalar Net802154MultiGateway.host[2].wrappedHost.lo[0].lo 	rcvdPkFromHL:count 	0
attr interpolationmode  none
attr source  packetReceivedFromUpper
attr title  "packets received from higher layer, count"
scalar Net802154MultiGateway.host[2].wrappedHost.lo[0].lo 	rcvdPkFromHL:sum(packetBytes) 	0
attr interpolationmode  none
attr source  packetReceivedFromUpper
attr title  "packets received from higher layer, sum(packetBytes)"
scalar Net802154MultiGateway.host[2].wrappedHost.lo[0].lo 	passedUpPk:count 	0
attr interpolationmode  none
attr source  packetSentToUpper
attr title  "packets passed to higher layer, count"
scalar Net802154MultiGateway.host[2].wrappedHost.lo[0].lo 	passedUpPk:sum(packetBytes) 	0
attr interpolationmode  none
attr source  packetSentToUpper
attr title  "packets passed to higher layer, sum(packetBytes)"
scalar Net802154MultiGateway.host[2].wrappedHost.wlan[0].mac 	numUpperPacketsForCAP 	302
scalar Net802154MultiGateway.host[2].wrappedHost.wlan[0].mac 	numUpperPacketsForGTS 	2169
scalar Net802154MultiGateway.host[2].wrappedHost.wlan[0].mac 	numUpperPacketsDroppedFullQueue 	0
scalar Net802154MultiGateway.host[2].wrappedHost.wlan[0].mac 	unicastDataSentDown:count 	2168
attr interpolationmode  none
attr source  unicastDataSentDown
attr title  "unicast packet sent down of type DATA, count"
scalar Net802154MultiGateway.host[2].wrappedHost.wlan[0].mac 	broadDataSentDown:count 	44
attr interpolationmode  none
attr source  broadcastDataSentDown
attr title  "broadcast packet sent down of type DATA, count"
scalar Net802154MultiGateway.host[2].wrappedHost.wlan[0].radio 	transmissionState:count 	18028
attr interpolationmode  sample-hold
attr source  transmissionStateChanged
attr title  "Radio transmission state, count"
scalar Net802154MultiGateway.host[2].wrappedHost.wlan[0].radio 	receptionState:count 	33087
attr interpolationmode  sample-hold
attr source  receptionStateChanged
attr title  "Radio reception state, count"
scalar Net802154MultiGateway.host[2].wrappedHost.wlan[0].radio 	radioMode:count 	9016
attr interpolationmode  sample-hold
attr source  radioModeChanged
attr title  "Radio mode, count"
scalar Net802154MultiGateway.host[2].wrappedHost.udp 	droppedPkBadChecksum:count 	0
attr interpolationmode  none
attr title  "packets dropped (checksum error), count"
scalar Net802154MultiGateway.host[2].wrappedHost.udp 	droppedPkWrongPort:count 	0
attr interpolationmode  none
attr title  "packets dropped (wrong port), count"
scalar Net802154MultiGateway.host[2].wrappedHost.udp 	passedUpPk:count 	0
attr interpolationmode  none
attr title  "packets passed up, count"
scalar Net802154MultiGateway.host[2].wrappedHost.udp 	rcvdPk:count 	0
attr interpolationmode  none
attr source  rcvdPk
attr title  "packets received, count"
scalar Net802154MultiGateway.host[2].wrappedHost.udp 	rcvdPk:sum(packetBytes) 	0
attr interpolationmode  none
attr source  rcvdPk
attr title  "packets received, sum(packetBytes)"
scalar Net802154MultiGateway.host[2].wrappedHost.udp 	sentPk:count 	0
attr interpolationmode  none
attr source  sentPk
attr title  "packets sent, count"
scalar Net802154MultiGateway.host[2].wrappedHost.udp 	sentPk:sum(packetBytes) 	0
attr interpolationmode  none
attr source  sentPk
attr title  "packets sent, sum(packetBytes)"
scalar Net802154MultiGateway.host[2].wrappedHost.trafficgen 	sentDummyPk:count 	133
attr interpolationmode  none
attr source  sentDummyPk
attr title  "dummy packets sent, count"
scalar Net802154MultiGateway.host[2].wrappedHost.trafficgen 	sinkRcvdPk:count 	100
attr interpolationmode  none
attr source  sinkRcvdPk
attr title  "own packets received by sink, count"
scalar Net802154MultiGateway.host[2].wrappedHost.trafficgen 	sinkRcvdPkDelay:mean 	0.28531706841672
attr interpolationmode  none
attr source  messageAge(sinkRcvdPk)
attr title  "delay of own packets received by sink, mean"
scalar Net802154MultiGateway.host[2].wrappedHost.trafficgen 	sinkRcvdPkDelay:max 	1.134567544768
attr interpolationmode  none
attr source  messageAge(sinkRcvdPk)
attr title  "delay of own packets received by sink, max"
scalar Net802154MultiGateway.host[2].wrappedHost.trafficgen 	PRR:last 	1
attr interpolationmode  none
attr source  count(sinkRcvdPk)/count(sentPk)
attr title  "PRR, last"
scalar Net802154MultiGateway.host[2].wrappedHost.trafficgen 	rcvdPk:count 	0
attr interpolationmode  none
attr source  rcvdPk
attr title  "packets received, count"
scalar Net802154MultiGateway.host[2].wrappedHost.trafficgen 	rcvdPk:sum(packetBytes) 	0
attr interpolationmode  none
attr source  rcvdPk
attr title  "packets received, sum(packetBytes)"
statistic Net802154MultiGateway.host[2].wrappedHost.trafficgen 	endToEndDelay:histogram
field count 0
field mean -nan
field stddev -nan
field sum 0
field sqrsum 0
field min -nan
field max -nan
attr interpolationmode  none
attr source  messageAge(rcvdPk)
attr title  "end-to-end delay, histogram"
attr unit  s
bin	-INF	0
bin	-0.5	0
bin	-0.46666666666667	0
bin	-0.43333333333333	0
bin	-0.4	0
bin	-0.36666666666667	0
bin	-0.33333333333333	0
bin	-0.3	0
bin	-0.26666666666667	0
bin	-0.23333333333333	0
bin	-0.2	0
bin	-0.16666666666667	0
bin	-0.13333333333333	0
bin	-0.1	0
bin	-0.066666666666667	0
bin	-0.033333333333333	0
bin	0	0
bin	0.033333333333333	0
bin	0.066666666666667	0
bin	0.1	0
bin	0.13333333333333	0
bin	0.16666666666667	0
bin	0.2	0
bin	0.23333333333333	0
bin	0.26666666666667	0
bin	0.3	0
bin	0.33333333333333	0
bin	0.36666666666667	0
bin	0.4	0
bin	0.43333333333333	0
bin	0.46666666666667	0
bin	0.5	0
scalar Net802154MultiGateway.host[2].wrappedHost.trafficgen 	sentPk:count 	100
attr interpolationmode  none
attr source  sentPk
attr title  "packets sent, count"
scalar Net802154MultiGateway.host[2].wrappedHost.trafficgen 	sentPk:sum(packetBytes) 	7600
attr interpolationmode  none
attr source  sentPk
attr title  "packets sent, sum(packetBytes)"
scalar Net802154MultiGateway.host[3].wrappedHost.lo[0].lo 	droppedPkBitError:count 	0
attr interpolationmode  none
attr source  dropPkBitError
attr title  "packets dropped/bit error, count"
scalar Net802154MultiGateway.host[3].wrappedHost.lo[0].lo 	droppedPkBitError:sum(packetBytes) 	0
attr interpolationmode  none
attr source  dropPkBitError
attr title  "packets dropped/bit error, sum(packetBytes)"
scalar Net802154MultiGateway.host[3].wrappedHost.lo[0].lo 	rcvdPkFromHL:count 	0
attr interpolationmode  none
attr source  packetReceivedFromUpper
attr title  "packets received from higher layer, count"
scalar Net802154MultiGateway.host[3].wrappedHost.lo[0].lo 	rcvdPkFromHL:sum(packetBytes) 	0
attr interpolationmode  none
attr source  packetReceivedFromUpper
attr title  "packets received from higher layer, sum(packetBytes)"
scalar Net802154MultiGateway.host[3].wrappedHost.lo[0].lo 	passedUpPk:count 	0
attr interpolationmode  none
attr source  packetSentToUpper
attr title  "packets passed to higher layer, count"
scalar Net802154MultiGateway.host[3].wrappedHost.lo[0].lo 	passedUpPk:sum(packetBytes) 	0
attr interpolationmode  none
attr source  packetSentToUpper
attr title  "packets passed to higher layer, sum(packetBytes)"
scalar Net802154MultiGateway.host[3].wrappedHost.wlan[0].mac 	numUpperPacketsForCAP 	375
scalar Net802154MultiGateway.host[3].wrappedHost.wlan[0].mac 	numUpperPacketsForGTS 	2222
scalar Net802154MultiGateway.host[3].wrappedHost.wlan[0].mac 	numUpperPacketsDroppedFullQueue 	0
scalar Net802154MultiGateway.host[3].wrappedHost.wlan[0].mac 	unicastDataSentDown:count 	2222
attr interpolationmode  none
attr source  unicastDataSentDown
attr title  "unicast packet sent down of type DATA, count"
scalar Net802154MultiGateway.host[3].wrappedHost.wlan[0].mac 	broadDataSentDown:count 	44
attr interpolationmode  none
attr source  broadcastDataSentDown
attr title  "broadcast packet sent down of type DATA, count"
scalar Net802154MultiGateway.host[3].wrappedHost.wlan[0].radio 	transmissionState:count 	19732
attr interpolationmode  sample-hold
attr source  transmissionStateChanged
attr title  "Radio transmission state, count"
scalar Net802154MultiGateway.host[3].wrappedHost.wlan[0].radio 	receptionState:count 	31700
attr interpolationmode  sample-hold
attr source  receptionStateChanged
attr title  "Radio reception state, count"
scalar Net802154MultiGateway.host[3].wrappedHost.wlan[0].radio 	radioMode:count 	9868
attr interpolationmode  sample-hold
attr source  radioModeChanged
attr title  "Radio mode, count"
scalar Net802154MultiGateway.host[3].wrappedHost.udp 	droppedPkBadChecksum:count 	0
attr interpolationmode  none
attr title  "packets dropped (checksum error), count"
scalar Net802154MultiGateway.host[3].wrappedHost.udp 	droppedPkWrongPort:count 	0
attr interpolationmode  none
attr title  "packets dropped (wrong port), count"
scalar Net802154MultiGateway.host[3].wrappedHost.udp 	passedUpPk:count 	0
attr interpolationmode  none
attr title  "packets passed up, count"
scalar Net802154MultiGateway.host[3].wrappedHost.udp 	rcvdPk:count 	0
attr interpolationmode  none
attr source  rcvdPk
attr title  "packets received, count"
scalar Net802154MultiGateway.host[3].wrappedHost.udp 	rcvdPk:sum(packetBytes) 	0
attr interpolationmode  none
attr source  rcvdPk
attr title  "packets received, sum(packetBytes)"
scalar Net802154MultiGateway.host[3].wrappedHost.udp 	sentPk:count 	0
attr interpolationmode  none
attr source  sentPk
attr title  "packets sent, count"
scalar Net802154MultiGateway.host[3].wrappedHost.udp 	sentPk:sum(packetBytes) 	0
attr interpolationmode  none
attr source  sentPk
attr title  "packets sent, sum(packetBytes)"
scalar Net802154MultiGateway.host[3].wrappedHost.trafficgen 	sentDummyPk:count 	130
attr interpolationmode  none
attr source  sentDummyPk
attr title  "dummy packets sent, count"
scalar Net802154MultiGateway.host[3].wrappedHost.trafficgen 	sinkRcvdPk:count 	100
attr interpolationmode  none
attr source  sinkRcvdPk
attr title  "own packets received by sink, count"
scalar Net802154MultiGateway.host[3].wrappedHost.trafficgen 	sinkRcvdPkDelay:mean 	0.2738163613417
attr interpolationmode  none
attr source  messageAge(sinkRcvdPk)
attr title  "delay of own packets received by sink, mean"
scalar Net802154MultiGateway.host[3].wrappedHost.trafficgen 	sinkRcvdPkDelay:max 	1.051907243902
attr interpolationmode  none
attr source  messageAge(sinkRcvdPk)
attr title  "delay of own packets received by sink, max"
scalar Net802154MultiGateway.host[3].wrappedHost.trafficgen 	PRR:last 	1
attr interpolationmode  none
attr source  count(sinkRcvdPk)/count(sentPk)
attr title  "PRR, last"
scalar Net802154MultiGateway.host[3].wrappedHost.trafficgen 	rcvdPk:count 	0
attr interpolationmode  none
attr source  rcvdPk
attr title  "packets received, count"
scalar Net802154MultiGateway.host[3].wrappedHost.trafficgen 	rcvdPk:sum(packetBytes) 	0
attr interpolationmode  none
attr source  rcvdPk
attr title  "packets received, sum(packetBytes)"
statistic Net802154MultiGateway.host[3].wrappedHost.trafficgen 	endToEndDelay:histogram
field count 0
field mean -nan
field stddev -nan
field sum 0
field sqrsum 0
field min -nan
field max -nan
attr interpolationmode  none
attr source  messageAge(rcvdPk)
attr title  "end-to-end delay, histogram"
attr unit  s
bin	-INF	0
bin	-0.5	0
bin	-0.46666666666667	0
bin	-0.43333333333333	0
bin	-0.4	0
bin	-0.36666666666667	0
bin	-0.33333333333333	0
bin	-0.3	0
bin	-0.26666666666667	0
bin	-0.23333333333333	0
bin	-0.2	0
bin	-0.16666666666667	0
bin	-0.13333333333333	0
bin	-0.1	0
bin	-0.066666666666667	0
bin	-0.033333333333333	0
bin	0	0
bin	0.033333333333333	0
bin	0.066666666666667	0
bin	0.1	0
bin	0.13333333333333	0
bin	0.16666666666667	0
bin	0.2	0
bin	0.23333333333333	0
bin	0.26666666666667	0
bin	0.3	0
bin	0.33333333333333	0
bin	0.36666666666667	0
bin	0.4	0
bin	0.43333333333333	0
bin	0.46666666666667	0
bin	0.5	0
scalar Net802154MultiGateway.host[3].wrappedHost.trafficgen 	sentPk:count 	100
attr interpolationmode  none
attr source  sentPk
attr title  "packets sent, count"
scalar Net802154MultiGateway.host[3].wrappedHost.trafficgen 	sentPk:sum(packetBytes) 	7600
attr interpolationmode  none
attr source  sentPk
attr title  "packets sent, sum(packetBytes)"
scalar Net802154MultiGateway.host[4].wrappedHost.lo[0].lo 	droppedPkBitError:count 	0
attr interpolationmode  none
attr source  dropPkBitError
attr title  "packets dropped/bit error, count"
scalar Net802154MultiGateway.host[4].wrappedHost.lo[0].lo 	droppedPkBitError:sum(packetBytes) 	0
attr interpolationmode  none
attr source  dropPkBitError
attr title  "packets dropped/bit error, sum(packetBytes)"
scalar Net802154MultiGateway.host[4].wrappedHost.lo[0].lo 	rcvdPkFromHL:count 	0
attr interpolationmode  none
attr source  packetReceivedFromUpper
attr title  "packets received from higher layer, count"
scalar Net802154MultiGateway.host[4].wrappedHost.lo[0].lo 	rcvdPkFromHL:sum(packetBytes) 	0
attr interpolationmode  none
attr source  packetReceivedFromUpper
attr title  "packets received from higher layer, sum(packetBytes)"
scalar Net802154MultiGateway.host[4].wrappedHost.lo[0].lo 	passedUpPk:count 	0
attr interpolationmode  none
attr source  packetSentToUpper
attr title  "packets passed to higher layer, count"
scalar Net802154MultiGateway.host[4].wrappedHost.lo[0].lo 	passedUpPk:sum(packetBytes) 	0
attr interpolationmode  none
attr source  packetSentToUpper
attr title  "packets passed to higher layer, sum(packetBytes)"
scalar Net802154MultiGateway.host[4].wrappedHost.wlan[0].mac 	numUpperPacketsForCAP 	308
scalar Net802154MultiGateway.host[4].wrappedHost.wlan[0].mac 	numUpperPacketsForGTS 	2186
scalar Net802154MultiGateway.host[4].wrappedHost.wlan[0].mac 	numUpperPacketsDroppedFullQueue 	8
scalar Net802154MultiGateway.host[4].wrappedHost.wlan[0].mac 	unicastDataSentDown:count 	2173
attr interpolationmode  none
attr source  unicastDataSentDown
attr title  "unicast packet sent down of type DATA, count"
scalar Net802154MultiGateway.host[4].wrappedHost.wlan[0].mac 	broadDataSentDown:count 	44
attr interpolationmode  none
attr source  broadcastDataSentDown
attr title  "broadcast packet sent down of type DATA, count"
scalar Net802154MultiGateway.host[4].wrappedHost.wlan[0].radio 	transmissionState:count 	19044
attr interpolationmode  sample-hold
attr source  transmissionStateChanged
attr title  "Radio transmission state, count"
scalar Net802154MultiGateway.host[4].wrappedHost.wlan[0].radio 	receptionState:count 	32301
attr interpolationmode  sample-hold
attr source  receptionStateChanged
attr title  "Radio reception state, count"
scalar Net802154MultiGateway.host[4].wrappedHost.wlan[0].radio 	radioMode:count 	9524
attr interpolationmode  sample-hold
attr source  radioModeChanged
attr title  "Radio mode, count"
scalar Net802154MultiGateway.host[4].wrappedHost.udp 	droppedPkBadChecksum:count 	0
attr interpolationmode  none
attr title  "packets dropped (checksum error), count"
scalar Net802154MultiGateway.host[4].wrappedHost.udp 	droppedPkWrongPort:count 	0
attr interpolationmode  none
attr title  "packets dropped (wrong port), count"
scalar Net802154MultiGateway.host[4].wrappedHost.udp 	passedUpPk:count 	0
attr interpolationmode  none
attr title  "packets passed up, count"
scalar Net802154MultiGateway.host[4].wrappedHost.udp 	rcvdPk:count 	0
attr interpolationmode  none
attr source  rcvdPk
attr title  "packets received, count"
scalar Net802154MultiGateway.host[4].wrappedHost.udp 	rcvdPk:sum(packetBytes) 	0
attr interpolationmode  none
attr source  rcvdPk
attr title  "packets received, sum(packetBytes)"
scalar Net802154MultiGateway.host[4].wrappedHost.udp 	sentPk:count 	0
attr interpolationmode  none
attr source  sentPk
attr title  "packets sent, count"
scalar Net802154MultiGateway.host[4].wrappedHost.udp 	sentPk:sum(packetBytes) 	0
attr interpolationmode  none
attr source  sentPk
attr title  "packets sent, sum(packetBytes)"
scalar Net802154MultiGateway.host[4].wrappedHost.trafficgen 	sentDummyPk:count 	150
attr interpolationmode  none
attr source  sentDummyPk
attr title  "dummy packets sent, count"
scalar Net802154MultiGateway.host[4].wrappedHost.trafficgen 	sinkRcvdPk:count 	100
attr interpolationmode  none
attr source  sinkRcvdPk
attr title  "own packets received by sink, count"
scalar Net802154MultiGateway.host[4].wrappedHost.trafficgen 	sinkRcvdPkDelay:mean 	0.21874353684327
attr interpolationmode  none
attr source  messageAge(sinkRcvdPk)
attr title  "delay of own packets received by sink, mean"
scalar Net802154MultiGateway.host[4].wrappedHost.trafficgen 	sinkRcvdPkDelay:max 	1.06370103862
attr interpolationmode  none
attr source  messageAge(sinkRcvdPk)
attr title  "delay of own packets received by sink, max"
scalar Net802154MultiGateway.host[4].wrappedHost.trafficgen 	PRR:last 	1
attr interpolationmode  none
attr source  count(sinkRcvdPk)/count(sentPk)
attr title  "PRR, last"
scalar Net802154MultiGateway.host[4].wrappedHost.trafficgen 	rcvdPk:count 	0
attr interpolationmode  none
attr source  rcvdPk
attr title  "packets received, count"
scalar Net802154MultiGateway.host[4].wrappedHost.trafficgen 	rcvdPk:sum(packetBytes) 	0
attr interpolationmode  none
attr source  rcvdPk
attr title  "packets received, sum(packetBytes)"
statistic Net802154MultiGateway.host[4].wrappedHost.trafficgen 	endToEndDelay:histogram
field count 0
field mean -nan
field stddev -nan
field sum 0
field sqrsum 0
field min -nan
field max -nan
attr interpolationmode  none
attr source  messageAge(rcvdPk)
attr title  "end-to-end delay, histogram"
attr unit  s
bin	-INF	0
bin	-0.5	0
bin	-0.46666666666667	0
bin	-0.43333333333333	0
bin	-0.4	0
bin	-0.36666666666667	0
bin	-0.33333333333333	0
bin	-0.3	0
bin	-0.26666666666667	0
bin	-0.23333333333333	0
bin	-0.2	0
bin	-0.16666666666667	0
bin	-0.13333333333333	0
bin	-0.1	0
bin	-0.066666666666667	0
bin	-0.033333333333333	0
bin	0	0
bin	0.033333333333333	0
bin	0.066666666666667	0
bin	0.1	0
bin	0.13333333333333	0
bin	0.16666666666667	0
bin	0.2	0
bin	0.23333333333333	0
bin	0.26666666666667	0
bin	0.3	0
bin	0.33333333333333	0
bin	0.36666666666667	0
bin	0.4	0
bin	0.43333333333333	0
bin	0.46666666666667	0
bin	0.5	0
scalar Net802154MultiGateway.host[4].wrappedHost.trafficgen 	sentPk:count 	100
attr interpolationmode  none
attr source  sentPk
attr title  "packets sent, count"
scalar Net802154MultiGateway.host[4].wrappedHost.trafficgen 	sentPk:sum(packetBytes) 	7600
attr interpolationmode  none
attr source  sentPk
attr title  "packets sent, sum(packetBytes)"
scalar Net802154MultiGateway.host[5].wrappedHost.lo[0].lo 	droppedPkBitError:count 	0
attr interpolationmode  none
attr source  dropPkBitError
attr title  "packets dropped/bit error, count"
scalar Net802154MultiGateway.host[5].wrappedHost.lo[0].lo 	droppedPkBitError:sum(packetBytes) 	0
attr interpolationmode  none
attr source  dropPkBitError
attr title  "packets dropped/bit error, sum(packetBytes)"
scalar Net802154MultiGateway.host[5].wrappedHost.lo[0].lo 	rcvdPkFromHL:count 	0
attr interpolationmode  none
attr source  packetReceivedFromUpper
attr title  "packets received from higher layer, count"
scalar Net802154MultiGateway.host[5].wrappedHost.lo[0].lo 	rcvdPkFromHL:sum(packetBytes) 	0
attr interpolationmode  none
attr source  packetReceivedFromUpper
attr title  "packets received from higher layer, sum(packetBytes)"
scalar Net802154MultiGateway.host[5].wrappedHost.lo[0].lo 	passedUpPk:count 	0
attr interpolationmode  none
attr source  packetSentToUpper
attr title  "packets passed to higher layer, count"
scalar Net802154MultiGateway.host[5].wrappedHost.lo[0].lo 	passedUpPk:sum(packetBytes) 	0
attr interpolationmode  none
attr source  packetSentToUpper
attr title  "packets passed to higher layer, sum(packetBytes)"
scalar Net802154MultiGateway.host[5].wrappedHost.wlan[0].mac 	numUpperPacketsForCAP 	340
scalar Net802154MultiGateway.host[5].wrappedHost.wlan[0].mac 	numUpperPacketsForGTS 	1949
scalar Net802154MultiGateway.host[5].wrappedHost.wlan[0].mac 	numUpperPacketsDroppedFullQueue 	0
scalar Net802154MultiGateway.host[5].wrappedHost.wlan[0].mac 	unicastDataSentDown:count 	1946
attr interpolationmode  none
attr source  unicastDataSentDown
attr title  "unicast packet sent down of type DATA, count"
scalar Net802154MultiGateway.host[5].wrappedHost.wlan[0].mac 	broadDataSentDown:count 	44
attr interpolationmode  none
attr source  broadcastDataSentDown
attr title  "broadcast packet sent down of type DATA, count"
scalar Net802154MultiGateway.host[5].wrappedHost.wlan[0].radio 	transmissionState:count 	16520
attr interpolationmode  sample-hold
attr source  transmissionStateChanged
attr title  "Radio transmission state, count"
scalar Net802154MultiGateway.host[5].wrappedHost.wlan[0].radio 	receptionState:count 	30239
attr interpolationmode  sample-hold
attr source  receptionStateChanged
attr title  "Radio reception state, count"
scalar Net802154MultiGateway.host[5].wrappedHost.wlan[0].radio 	radioMode:count 	8262
attr interpolationmode  sample-hold
attr source  radioModeChanged
attr title  "Radio mode, count"
scalar Net802154MultiGateway.host[5].wrappedHost.udp 	droppedPkBadChecksum:count 	0
attr interpolationmode  none
attr title  "packets dropped (checksum error), count"
scalar Net802154MultiGateway.host[5].wrappedHost.udp 	droppedPkWrongPort:count 	0
attr interpolationmode  none
[...]
attr title  "packets sent, sum(packetBytes)"
scalar Net802154MultiGateway.host[59].wrappedHost.lo[0].lo 	droppedPkBitError:count 	0
attr interpolationmode  none
attr source  dropPkBitError
attr title  "packets dropped/bit error, count"
scalar Net802154MultiGateway.host[59].wrappedHost.lo[0].lo 	droppedPkBitError:sum(packetBytes) 	0
attr interpolationmode  none
attr source  dropPkBitError
attr title  "packets dropped/bit error, sum(packetBytes)"
scalar Net802154MultiGateway.host[59].wrappedHost.lo[0].lo 	rcvdPkFromHL:count 	0
attr interpolationmode  none
attr source  packetReceivedFromUpper
attr title  "packets received from higher layer, count"
scalar Net802154MultiGateway.host[59].wrappedHost.lo[0].lo 	rcvdPkFromHL:sum(packetBytes) 	0
attr interpolationmode  none
attr source  packetReceivedFromUpper
attr title  "packets received from higher layer, sum(packetBytes)"
scalar Net802154MultiGateway.host[59].wrappedHost.lo[0].lo 	passedUpPk:count 	0
attr interpolationmode  none
attr source  packetSentToUpper
attr title  "packets passed to higher layer, count"
scalar Net802154MultiGateway.host[59].wrappedHost.lo[0].lo 	passedUpPk:sum(packetBytes) 	0
attr interpolationmode  none
attr source  packetSentToUpper
attr title  "packets passed to higher layer, sum(packetBytes)"
scalar Net802154MultiGateway.host[59].wrappedHost.wlan[0].mac 	numUpperPacketsForCAP 	78
scalar Net802154MultiGateway.host[59].wrappedHost.wlan[0].mac 	numUpperPacketsForGTS 	217
scalar Net802154MultiGateway.host[59].wrappedHost.wlan[0].mac 	numUpperPacketsDroppedFullQueue 	0
scalar Net802154MultiGateway.host[59].wrappedHost.wlan[0].mac 	unicastDataSentDown:count 	217
attr interpolationmode  none
attr source  unicastDataSentDown
attr title  "unicast packet sent down of type DATA, count"
scalar Net802154MultiGateway.host[59].wrappedHost.wlan[0].mac 	broadDataSentDown:count 	43
attr interpolationmode  none
attr source  broadcastDataSentDown
attr title  "broadcast packet sent down of type DATA, count"
scalar Net802154MultiGateway.host[59].wrappedHost.wlan[0].radio 	transmissionState:count 	2100
attr interpolationmode  sample-hold
attr source  transmissionStateChanged
attr title  "Radio transmission state, count"
scalar Net802154MultiGateway.host[59].wrappedHost.wlan[0].radio 	receptionState:count 	3119
attr interpolationmode  sample-hold
attr source  receptionStateChanged
attr title  "Radio reception state, count"
scalar Net802154MultiGateway.host[59].wrappedHost.wlan[0].radio 	radioMode:count 	1052
attr interpolationmode  sample-hold
attr source  radioModeChanged
attr title  "Radio mode, count"
scalar Net802154MultiGateway.host[59].wrappedHost.udp 	droppedPkBadChecksum:count 	0
attr interpolationmode  none
attr title  "packets dropped (checksum error), count"
scalar Net802154MultiGateway.host[59].wrappedHost.udp 	droppedPkWrongPort:count 	0
attr interpolationmode  none
attr title  "packets dropped (wrong port), count"
scalar Net802154MultiGateway.host[59].wrappedHost.udp 	passedUpPk:count 	0
attr interpolationmode  none
attr title  "packets passed up, count"
scalar Net802154MultiGateway.host[59].wrappedHost.udp 	rcvdPk:count 	0
attr interpolationmode  none
attr source  rcvdPk
attr title  "packets received, count"
scalar Net802154MultiGateway.host[59].wrappedHost.udp 	rcvdPk:sum(packetBytes) 	0
attr interpolationmode  none
attr source  rcvdPk
attr title  "packets received, sum(packetBytes)"
scalar Net802154MultiGateway.host[59].wrappedHost.udp 	sentPk:count 	0
attr interpolationmode  none
attr source  sentPk
attr title  "packets sent, count"
scalar Net802154MultiGateway.host[59].wrappedHost.udp 	sentPk:sum(packetBytes) 	0
attr interpolationmode  none
attr source  sentPk
attr title  "packets sent, sum(packetBytes)"
scalar Net802154MultiGateway.host[59].wrappedHost.trafficgen 	sentDummyPk:count 	131
attr interpolationmode  none
attr source  sentDummyPk
attr title  "dummy packets sent, count"
scalar Net802154MultiGateway.host[59].wrappedHost.trafficgen 	sinkRcvdPk:count 	100
attr interpolationmode  none
attr source  sinkRcvdPk
attr title  "own packets received by sink, count"
scalar Net802154MultiGateway.host[59].wrappedHost.trafficgen 	sinkRcvdPkDelay:mean 	1.3215935517589
attr interpolationmode  none
attr source  messageAge(sinkRcvdPk)
attr title  "delay of own packets received by sink, mean"
scalar Net802154MultiGateway.host[59].wrappedHost.trafficgen 	sinkRcvdPkDelay:max 	5.212032772914
attr interpolationmode  none
attr source  messageAge(sinkRcvdPk)
attr title  "delay of own packets received by sink, max"
scalar Net802154MultiGateway.host[59].wrappedHost.trafficgen 	PRR:last 	1
attr interpolationmode  none
attr source  count(sinkRcvdPk)/count(sentPk)
attr title  "PRR, last"
scalar Net802154MultiGateway.host[59].wrappedHost.trafficgen 	rcvdPk:count 	0
attr interpolationmode  none
attr source  rcvdPk
attr title  "packets received, count"
scalar Net802154MultiGateway.host[59].wrappedHost.trafficgen 	rcvdPk:sum(packetBytes) 	0
attr interpolationmode  none
attr source  rcvdPk
attr title  "packets received, sum(packetBytes)"
statistic Net802154MultiGateway.host[59].wrappedHost.trafficgen 	endToEndDelay:histogram
field count 0
field mean -nan
field stddev -nan
field sum 0
field sqrsum 0
field min -nan
field max -nan
attr interpolationmode  none
attr source  messageAge(rcvdPk)
attr title  "end-to-end delay, histogram"
attr unit  s
bin	-INF	0
bin	-0.5	0
bin	-0.46666666666667	0
bin	-0.43333333333333	0
bin	-0.4	0
bin	-0.36666666666667	0
bin	-0.33333333333333	0
bin	-0.3	0
bin	-0.26666666666667	0
bin	-0.23333333333333	0
bin	-0.2	0
bin	-0.16666666666667	0
bin	-0.13333333333333	0
bin	-0.1	0
bin	-0.066666666666667	0
bin	-0.033333333333333	0
bin	0	0
bin	0.033333333333333	0
bin	0.066666666666667	0
bin	0.1	0
bin	0.13333333333333	0
bin	0.16666666666667	0
bin	0.2	0
bin	0.23333333333333	0
bin	0.26666666666667	0
bin	0.3	0
bin	0.33333333333333	0
bin	0.36666666666667	0
bin	0.4	0
bin	0.43333333333333	0
bin	0.46666666666667	0
bin	0.5	0
scalar Net802154MultiGateway.host[59].wrappedHost.trafficgen 	sentPk:count 	100
attr interpolationmode  none
attr source  sentPk
attr title  "packets sent, count"
scalar Net802154MultiGateway.host[59].wrappedHost.trafficgen 	sentPk:sum(packetBytes) 	7600
attr interpolationmode  none
attr source  sentPk
attr title  "packets sent, sum(packetBytes)"
scalar Net802154MultiGateway.host[60].wrappedHost.lo[0].lo 	droppedPkBitError:count 	0
attr interpolationmode  none
attr source  dropPkBitError
attr title  "packets dropped/bit error, count"
scalar Net802154MultiGateway.host[60].wrappedHost.lo[0].lo 	droppedPkBitError:sum(packetBytes) 	0
attr interpolationmode  none
attr source  dropPkBitError
attr title  "packets dropped/bit error, sum(packetBytes)"
scalar Net802154MultiGateway.host[60].wrappedHost.lo[0].lo 	rcvdPkFromHL:count 	0
attr interpolationmode  none
attr source  packetReceivedFromUpper
attr title  "packets received from higher layer, count"
scalar Net802154MultiGateway.host[60].wrappedHost.lo[0].lo 	rcvdPkFromHL:sum(packetBytes) 	0
attr interpolationmode  none
attr source  packetReceivedFromUpper
attr title  "packets received from higher layer, sum(packetBytes)"
scalar Net802154MultiGateway.host[60].wrappedHost.lo[0].lo 	passedUpPk:count 	0
attr interpolationmode  none
attr source  packetSentToUpper
attr title  "packets passed to higher layer, count"
scalar Net802154MultiGateway.host[60].wrappedHost.lo[0].lo 	passedUpPk:sum(packetBytes) 	0
attr interpolationmode  none
attr source  packetSentToUpper
attr title  "packets passed to higher layer, sum(packetBytes)"
scalar Net802154MultiGateway.host[60].wrappedHost.wlan[0].mac 	numUpperPacketsForCAP 	64
scalar Net802154MultiGateway.host[60].wrappedHost.wlan[0].mac 	numUpperPacketsForGTS 	235
scalar Net802154MultiGateway.host[60].wrappedHost.wlan[0].mac 	numUpperPacketsDroppedFullQueue 	0
scalar Net802154MultiGateway.host[60].wrappedHost.wlan[0].mac 	unicastDataSentDown:count 	235
attr interpolationmode  none
attr source  unicastDataSentDown
attr title  "unicast packet sent down of type DATA, count"
scalar Net802154MultiGateway.host[60].wrappedHost.wlan[0].mac 	broadDataSentDown:count 	43
attr interpolationmode  none
attr source  broadcastDataSentDown
attr title  "broadcast packet sent down of type DATA, count"
scalar Net802154MultiGateway.host[60].wrappedHost.wlan[0].radio 	transmissionState:count 	1224
attr interpolationmode  sample-hold
attr source  transmissionStateChanged
attr title  "Radio transmission state, count"
scalar Net802154MultiGateway.host[60].wrappedHost.wlan[0].radio 	receptionState:count 	3475
attr interpolationmode  sample-hold
attr source  receptionStateChanged
attr title  "Radio reception state, count"
scalar Net802154MultiGateway.host[60].wrappedHost.wlan[0].radio 	radioMode:count 	614
attr interpolationmode  sample-hold
attr source  radioModeChanged
attr title  "Radio mode, count"
scalar Net802154MultiGateway.host[60].wrappedHost.udp 	droppedPkBadChecksum:count 	0
attr interpolationmode  none
attr title  "packets dropped (checksum error), count"
scalar Net802154MultiGateway.host[60].wrappedHost.udp 	droppedPkWrongPort:count 	0
attr interpolationmode  none
attr title  "packets dropped (wrong port), count"
scalar Net802154MultiGateway.host[60].wrappedHost.udp 	passedUpPk:count 	0
attr interpolationmode  none
attr title  "packets passed up, count"
scalar Net802154MultiGateway.host[60].wrappedHost.udp 	rcvdPk:count 	0
attr interpolationmode  none
attr source  rcvdPk
attr title  "packets received, count"
scalar Net802154MultiGateway.host[60].wrappedHost.udp 	rcvdPk:sum(packetBytes) 	0
attr interpolationmode  none
attr source  rcvdPk
attr title  "packets received, sum(packetBytes)"
scalar Net802154MultiGateway.host[60].wrappedHost.udp 	sentPk:count 	0
attr interpolationmode  none
attr source  sentPk
attr title  "packets sent, count"
scalar Net802154MultiGateway.host[60].wrappedHost.udp 	sentPk:sum(packetBytes) 	0
attr interpolationmode  none
attr source  sentPk
attr title  "packets sent, sum(packetBytes)"
scalar Net802154MultiGateway.host[60].wrappedHost.trafficgen 	sentDummyPk:count 	153
attr interpolationmode  none
attr source  sentDummyPk
attr title  "dummy packets sent, count"
scalar Net802154MultiGateway.host[60].wrappedHost.trafficgen 	sinkRcvdPk:count 	100
attr interpolationmode  none
attr source  sinkRcvdPk
attr title  "own packets received by sink, count"
scalar Net802154MultiGateway.host[60].wrappedHost.trafficgen 	sinkRcvdPkDelay:mean 	1.3885773280168
attr interpolationmode  none
attr source  messageAge(sinkRcvdPk)
attr title  "delay of own packets received by sink, mean"
scalar Net802154MultiGateway.host[60].wrappedHost.trafficgen 	sinkRcvdPkDelay:max 	3.236414326069
attr interpolationmode  none
attr source  messageAge(sinkRcvdPk)
attr title  "delay of own packets received by sink, max"
scalar Net802154MultiGateway.host[60].wrappedHost.trafficgen 	PRR:last 	1
attr interpolationmode  none
attr source  count(sinkRcvdPk)/count(sentPk)
attr title  "PRR, last"
scalar Net802154MultiGateway.host[60].wrappedHost.trafficgen 	rcvdPk:count 	0
attr interpolationmode  none
attr source  rcvdPk
attr title  "packets received, count"
scalar Net802154MultiGateway.host[60].wrappedHost.trafficgen 	rcvdPk:sum(packetBytes) 	0
attr interpolationmode  none
attr source  rcvdPk
attr title  "packets received, sum(packetBytes)"
statistic Net802154MultiGateway.host[60].wrappedHost.trafficgen 	endToEndDelay:histogram
field count 0
field mean -nan
field stddev -nan
field sum 0
field sqrsum 0
field min -nan
field max -nan
attr interpolationmode  none
attr source  messageAge(rcvdPk)
attr title  "end-to-end delay, histogram"
attr unit  s
bin	-INF	0
bin	-0.5	0
bin	-0.46666666666667	0
bin	-0.43333333333333	0
bin	-0.4	0
bin	-0.36666666666667	0
bin	-0.33333333333333	0
bin	-0.3	0
bin	-0.26666666666667	0
bin	-0.23333333333333	0
bin	-0.2	0
bin	-0.16666666666667	0
bin	-0.13333333333333	0
bin	-0.1	0
bin	-0.066666666666667	0
bin	-0.033333333333333	0
bin	0	0
bin	0.033333333333333	0
bin	0.066666666666667	0
bin	0.1	0
bin	0.13333333333333	0
bin	0.16666666666667	0
bin	0.2	0
bin	0.23333333333333	0
bin	0.26666666666667	0
bin	0.3	0
bin	0.33333333333333	0
bin	0.36666666666667	0
bin	0.4	0
bin	0.43333333333333	0
bin	0.46666666666667	0
bin	0.5	0
scalar Net802154MultiGateway.host[60].wrappedHost.trafficgen 	sentPk:count 	100
attr interpolationmode  none
attr source  sentPk
attr title  "packets sent, count"
scalar Net802154MultiGateway.host[60].wrappedHost.trafficgen 	sentPk:sum(packetBytes) 	7600
attr interpolationmode  none
attr source  sentPk
attr title  "packets sent, sum(packetBytes)"
scalar Net802154MultiGateway.host[61].wrappedHost.lo[0].lo 	droppedPkBitError:count 	0
attr interpolationmode  none
attr source  dropPkBitError
attr title  "packets dropped/bit error, count"
scalar Net802154MultiGateway.host[61].wrappedHost.lo[0].lo 	droppedPkBitError:sum(packetBytes) 	0
attr interpolationmode  none
attr source  dropPkBitError
attr title  "packets dropped/bit error, sum(packetBytes)"
scalar Net802154MultiGateway.host[61].wrappedHost.lo[0].lo 	rcvdPkFromHL:count 	0
attr interpolationmode  none
attr source  packetReceivedFromUpper
attr title  "packets received from higher layer, count"
scalar Net802154MultiGateway.host[61].wrappedHost.lo[0].lo 	rcvdPkFromHL:sum(packetBytes) 	0
attr interpolationmode  none
attr source  packetReceivedFromUpper
attr title  "packets received from higher layer, sum(packetBytes)"
scalar Net802154MultiGateway.host[61].wrappedHost.lo[0].lo 	passedUpPk:count 	0
attr interpolationmode  none
attr source  packetSentToUpper
attr title  "packets passed to higher layer, count"
scalar Net802154MultiGateway.host[61].wrappedHost.lo[0].lo 	passedUpPk:sum(packetBytes) 	0
attr interpolationmode  none
attr source  packetSentToUpper
attr title  "packets passed to higher layer, sum(packetBytes)"
scalar Net802154MultiGateway.host[61].wrappedHost.wlan[0].mac 	numUpperPacketsForCAP 	89
scalar Net802154MultiGateway.host[61].wrappedHost.wlan[0].mac 	numUpperPacketsForGTS 	208
scalar Net802154MultiGateway.host[61].wrappedHost.wlan[0].mac 	numUpperPacketsDroppedFullQueue 	0
scalar Net802154MultiGateway.host[61].wrappedHost.wlan[0].mac 	unicastDataSentDown:count 	208
attr interpolationmode  none
attr source  unicastDataSentDown
attr title  "unicast packet sent down of type DATA, count"
scalar Net802154MultiGateway.host[61].wrappedHost.wlan[0].mac 	broadDataSentDown:count 	43
attr interpolationmode  none
attr source  broadcastDataSentDown
attr title  "broadcast packet sent down of type DATA, count"
scalar Net802154MultiGateway.host[61].wrappedHost.wlan[0].radio 	transmissionState:count 	2120
attr interpolationmode  sample-hold
attr source  transmissionStateChanged
attr title  "Radio transmission state, count"
scalar Net802154MultiGateway.host[61].wrappedHost.wlan[0].radio 	receptionState:count 	4071
attr interpolationmode  sample-hold
attr source  receptionStateChanged
attr title  "Radio reception state, count"
scalar Net802154MultiGateway.host[61].wrappedHost.wlan[0].radio 	radioMode:count 	1062
attr interpolationmode  sample-hold
attr source  radioModeChanged
attr title  "Radio mode, count"
scalar Net802154MultiGateway.host[61].wrappedHost.udp 	droppedPkBadChecksum:count 	0
attr interpolationmode  none
attr title  "packets dropped (checksum error), count"
scalar Net802154MultiGateway.host[61].wrappedHost.udp 	droppedPkWrongPort:count 	0
attr interpolationmode  none
attr title  "packets dropped (wrong port), count"
scalar Net802154MultiGateway.host[61].wrappedHost.udp 	passedUpPk:count 	0
attr interpolationmode  none
attr title  "packets passed up, count"
scalar Net802154MultiGateway.host[61].wrappedHost.udp 	rcvdPk:count 	0
attr interpolationmode  none
attr source  rcvdPk
attr title  "packets received, count"
scalar Net802154MultiGateway.host[61].wrappedHost.udp 	rcvdPk:sum(packetBytes) 	0
attr interpolationmode  none
attr source  rcvdPk
attr title  "packets received, sum(packetBytes)"
scalar Net802154MultiGateway.host[61].wrappedHost.udp 	sentPk:count 	0
attr interpolationmode  none
attr source  sentPk
attr title  "packets sent, count"
scalar Net802154MultiGateway.host[61].wrappedHost.udp 	sentPk:sum(packetBytes) 	0
attr interpolationmode  none
attr source  sentPk
attr title  "packets sent, sum(packetBytes)"
scalar Net802154MultiGateway.host[61].wrappedHost.trafficgen 	sentDummyPk:count 	119
attr interpolationmode  none
attr source  sentDummyPk
attr title  "dummy packets sent, count"
scalar Net802154MultiGateway.host[61].wrappedHost.trafficgen 	sinkRcvdPk:count 	100
attr interpolationmode  none
attr source  sinkRcvdPk
attr title  "own packets received by sink, count"
scalar Net802154MultiGateway.host[61].wrappedHost.trafficgen 	sinkRcvdPkDelay:mean 	1.0793578721225
attr interpolationmode  none
attr source  messageAge(sinkRcvdPk)
attr title  "delay of own packets received by sink, mean"
scalar Net802154MultiGateway.host[61].wrappedHost.trafficgen 	sinkRcvdPkDelay:max 	4.784954437955
attr interpolationmode  none
attr source  messageAge(sinkRcvdPk)
attr title  "delay of own packets received by sink, max"
scalar Net802154MultiGateway.host[61].wrappedHost.trafficgen 	PRR:last 	1
attr interpolationmode  none
attr source  count(sinkRcvdPk)/count(sentPk)
attr title  "PRR, last"
scalar Net802154MultiGateway.host[61].wrappedHost.trafficgen 	rcvdPk:count 	0
attr interpolationmode  none
attr source  rcvdPk
attr title  "packets received, count"
scalar Net802154MultiGateway.host[61].wrappedHost.trafficgen 	rcvdPk:sum(packetBytes) 	0
attr interpolationmode  none
attr source  rcvdPk
attr title  "packets received, sum(packetBytes)"
statistic Net802154MultiGateway.host[61].wrappedHost.trafficgen 	endToEndDelay:histogram
field count 0
field mean -nan
field stddev -nan
field sum 0
field sqrsum 0
field min -nan
field max -nan
attr interpolationmode  none
attr source  messageAge(rcvdPk)
attr title  "end-to-end delay, histogram"
attr unit  s
bin	-INF	0
bin	-0.5	0
bin	-0.46666666666667	0
bin	-0.43333333333333	0
bin	-0.4	0
bin	-0.36666666666667	0
bin	-0.33333333333333	0
bin	-0.3	0
bin	-0.26666666666667	0
bin	-0.23333333333333	0
bin	-0.2	0
bin	-0.16666666666667	0
bin	-0.13333333333333	0
bin	-0.1	0
bin	-0.066666666666667	0
bin	-0.033333333333333	0
bin	0	0
bin	0.033333333333333	0
bin	0.066666666666667	0
bin	0.1	0
bin	0.13333333333333	0
bin	0.16666666666667	0
bin	0.2	0
bin	0.23333333333333	0
bin	0.26666666666667	0
bin	0.3	0
bin	0.33333333333333	0
bin	0.36666666666667	0
bin	0.4	0
bin	0.43333333333333	0
bin	0.46666666666667	0
bin	0.5	0
scalar Net802154MultiGateway.host[61].wrappedHost.trafficgen 	sentPk:count 	100
attr interpolationmode  none
attr source  sentPk
attr title  "packets sent, count"
scalar Net802154MultiGateway.host[61].wrappedHost.trafficgen 	sentPk:sum(packetBytes) 	7600
attr interpolationmode  none
attr source  sentPk
attr title  "packets sent, sum(packetBytes)"
scalar Net802154MultiGateway.radioMedium.propagation 	"Arrival computation count" 	6096584
scalar Net802154MultiGateway.radioMedium 	"transmission count" 	99944
scalar Net802154MultiGateway.radioMedium 	"radio frame send count" 	794158
scalar Net802154MultiGateway.radioMedium 	"reception computation count" 	794158
scalar Net802154MultiGateway.radioMedium 	"interference computation count" 	2380530
scalar Net802154MultiGateway.radioMedium 	"reception decision computation count" 	246170
scalar Net802154MultiGateway.radioMedium 	"listening decision computation count" 	1370572
scalar Net802154MultiGateway.radioMedium 	"reception cache hit" 	81.288283353066
attr unit  %
scalar Net802154MultiGateway.radioMedium 	"interference cache hit" 	66.666666666667
attr unit  %
scalar Net802154MultiGateway.radioMedium 	"noise cache hit" 	0
attr unit  %
scalar Net802154MultiGateway.radioMedium 	"snir cache hit" 	50
attr unit  %
scalar Net802154MultiGateway.radioMedium 	"reception decision cache hit" 	50
attr unit  %
scalar Net802154MultiGateway.radioMedium 	"reception result cache hit" 	0
attr unit  %
