file 14028220 1482413459                                        
version 2
run DSME-0-20161222-13:27:20-17333
attr beaconInterval 10s
attr configname DSME
attr datetime 20161222-13:27:20
attr experiment DSME
attr inifile simulations/omnetpp.ini
attr iterationvars "$packetLength=76B, $sendInt=2, $beaconInterval=10s, $0=10s/2, $1=3 * 10s"
attr iterationvars2 "$packetLength=76B, $sendInt=2, $beaconInterval=10s, $0=10s/2, $1=3 * 10s, $repetition=0"
attr measurement "$packetLength=76B, $sendInt=2, $beaconInterval=10s, $0=10s/2, $1=3 * 10s"
attr network multi_gateway.Net802154MultiGateway
attr packetLength 76B
attr processid 17333
attr repetition 0
attr replication #0
attr resultdir ../results
attr runnumber 0
attr seedset 0
attr sendInt 2
param **.configurator.addStaticRoutes false
param **.dumpRoutes false
param **.dumpTopology false
param **.host[*].**.gpsr.beaconInterval "${beaconInterval = 10s}"
param **.host[*].**.gpsr.maxJitter ${$beaconInterval/2}
param **.host[*].**.gpsr.neighborValidityInterval "${3 * $beaconInterval}"
param **.host[*].**.gpsr.positionByteLength "2 B"
param **.host[*].**.gpsr.routingStrategy "\"StraightestPath\""
param **.host[*].**.trafficgen.continueSendingDummyPackets true
param **.host[*].**.trafficgen.coolDownDuration 15s
param **.host[*].**.trafficgen.destAddresses "\"host[0].wrappedHost(modulepath)\""
param **.host[*].**.trafficgen.packetLength "${packetLength = 76B}"
param **.host[*].**.trafficgen.sendInterval "exponential(${sendInt=1.0..2.5 step 0.25}s)"
param **.host[*].**.trafficgen.startTime 30s
param **.host[*].**.trafficgen.warmUpDuration 190s
param **.host[*].**.wlan[*].mac.macDSMEGTSExpirationTime 7
param **.host[*].**.wlan[*].macType "\"DSME\""
param **.host[*].**.wlan[*].radio.receiver.minInterferencePower "-100 dBm"
param **.host[*].hostType "\"SimpleHost\""
param **.host[*].mobilityType "\"StaticConcentricWrappingMobility\""
param **.host[0].**.trafficgen.numPackets 0
param **.host[0].**.wlan[*].mac.isPANCoordinator true
param **.host[1..].**.trafficgen.numPackets 100
param **.numHosts 62
param **.radioMedium.rangeFilter "\"interferenceRange\""
param **.routingTable.addressType "\"modulepath\""
param **.routingTableType "\"GenericRoutingTable\""

vector 17  Net802154MultiGateway.host[0].wrappedHost.wlan[0].mac  uncorruptedFrameReceived:vector(packetBytes)  ETV
attr interpolationmode  none
attr source  uncorruptedFrameReceived
attr title  "uncorrupted frame received, vector(packetBytes)"
vector 71  Net802154MultiGateway.host[3].wrappedHost.wlan[0].mac  uncorruptedFrameReceived:vector(packetBytes)  ETV
attr interpolationmode  none
attr source  uncorruptedFrameReceived
attr title  "uncorrupted frame received, vector(packetBytes)"
vector 107  Net802154MultiGateway.host[5].wrappedHost.wlan[0].mac  uncorruptedFrameReceived:vector(packetBytes)  ETV
attr interpolationmode  none
attr source  uncorruptedFrameReceived
attr title  "uncorrupted frame received, vector(packetBytes)"
vector 251  Net802154MultiGateway.host[13].wrappedHost.wlan[0].mac  uncorruptedFrameReceived:vector(packetBytes)  ETV
attr interpolationmode  none
attr source  uncorruptedFrameReceived
attr title  "uncorrupted frame received, vector(packetBytes)"
vector 233  Net802154MultiGateway.host[12].wrappedHost.wlan[0].mac  uncorruptedFrameReceived:vector(packetBytes)  ETV
attr interpolationmode  none
attr source  uncorruptedFrameReceived
attr title  "uncorrupted frame received, vector(packetBytes)"
vector 269  Net802154MultiGateway.host[14].wrappedHost.wlan[0].mac  uncorruptedFrameReceived:vector(packetBytes)  ETV
attr interpolationmode  none
attr source  uncorruptedFrameReceived
attr title  "uncorrupted frame received, vector(packetBytes)"
vector 52  Net802154MultiGateway.host[2].wrappedHost.wlan[0].mac  corruptedFrameReceived:vector(packetBytes)  ETV
attr interpolationmode  none
attr source  corruptedFrameReceived
attr title  "corrupted frame received, vector(packetBytes)"
vector 124  Net802154MultiGateway.host[6].wrappedHost.wlan[0].mac  corruptedFrameReceived:vector(packetBytes)  ETV
attr interpolationmode  none
attr source  corruptedFrameReceived
attr title  "corrupted frame received, vector(packetBytes)"
vector 214  Net802154MultiGateway.host[11].wrappedHost.wlan[0].mac  corruptedFrameReceived:vector(packetBytes)  ETV
attr interpolationmode  none
attr source  corruptedFrameReceived
attr title  "corrupted frame received, vector(packetBytes)"
vector 286  Net802154MultiGateway.host[15].wrappedHost.wlan[0].mac  corruptedFrameReceived:vector(packetBytes)  ETV
attr interpolationmode  none
attr source  corruptedFrameReceived
attr title  "corrupted frame received, vector(packetBytes)"
vector 35  Net802154MultiGateway.host[1].wrappedHost.wlan[0].mac  uncorruptedFrameReceived:vector(packetBytes)  ETV
attr interpolationmode  none
attr source  uncorruptedFrameReceived
attr title  "uncorrupted frame received, vector(packetBytes)"
vector 53  Net802154MultiGateway.host[2].wrappedHost.wlan[0].mac  uncorruptedFrameReceived:vector(packetBytes)  ETV
attr interpolationmode  none
attr source  uncorruptedFrameReceived
attr title  "uncorrupted frame received, vector(packetBytes)"
vector 89  Net802154MultiGateway.host[4].wrappedHost.wlan[0].mac  uncorruptedFrameReceived:vector(packetBytes)  ETV
attr interpolationmode  none
attr source  uncorruptedFrameReceived
attr title  "uncorrupted frame received, vector(packetBytes)"
vector 125  Net802154MultiGateway.host[6].wrappedHost.wlan[0].mac  uncorruptedFrameReceived:vector(packetBytes)  ETV
attr interpolationmode  none
attr source  uncorruptedFrameReceived
attr title  "uncorrupted frame received, vector(packetBytes)"
vector 143  Net802154MultiGateway.host[7].wrappedHost.wlan[0].mac  uncorruptedFrameReceived:vector(packetBytes)  ETV
attr interpolationmode  none
attr source  uncorruptedFrameReceived
attr title  "uncorrupted frame received, vector(packetBytes)"
vector 683  Net802154MultiGateway.host[37].wrappedHost.wlan[0].mac  uncorruptedFrameReceived:vector(packetBytes)  ETV
attr interpolationmode  none
attr source  uncorruptedFrameReceived
attr title  "uncorrupted frame received, vector(packetBytes)"
vector 377  Net802154MultiGateway.host[20].wrappedHost.wlan[0].mac  uncorruptedFrameReceived:vector(packetBytes)  ETV
attr interpolationmode  none
attr source  uncorruptedFrameReceived
attr title  "uncorrupted frame received, vector(packetBytes)"
vector 665  Net802154MultiGateway.host[36].wrappedHost.wlan[0].mac  uncorruptedFrameReceived:vector(packetBytes)  ETV
attr interpolationmode  none
attr source  uncorruptedFrameReceived
attr title  "uncorrupted frame received, vector(packetBytes)"
vector 701  Net802154MultiGateway.host[38].wrappedHost.wlan[0].mac  uncorruptedFrameReceived:vector(packetBytes)  ETV
attr interpolationmode  none
attr source  uncorruptedFrameReceived
attr title  "uncorrupted frame received, vector(packetBytes)"
vector 1115  Net802154MultiGateway.host[61].wrappedHost.wlan[0].mac  uncorruptedFrameReceived:vector(packetBytes)  ETV
attr interpolationmode  none
attr source  uncorruptedFrameReceived
attr title  "uncorrupted frame received, vector(packetBytes)"
vector 161  Net802154MultiGateway.host[8].wrappedHost.wlan[0].mac  uncorruptedFrameReceived:vector(packetBytes)  ETV
attr interpolationmode  none
attr source  uncorruptedFrameReceived
attr title  "uncorrupted frame received, vector(packetBytes)"
vector 341  Net802154MultiGateway.host[18].wrappedHost.wlan[0].mac  uncorruptedFrameReceived:vector(packetBytes)  ETV
attr interpolationmode  none
attr source  uncorruptedFrameReceived
attr title  "uncorrupted frame received, vector(packetBytes)"
vector 809  Net802154MultiGateway.host[44].wrappedHost.wlan[0].mac  uncorruptedFrameReceived:vector(packetBytes)  ETV
attr interpolationmode  none
attr source  uncorruptedFrameReceived
attr title  "uncorrupted frame received, vector(packetBytes)"
vector 845  Net802154MultiGateway.host[46].wrappedHost.wlan[0].mac  uncorruptedFrameReceived:vector(packetBytes)  ETV
attr interpolationmode  none
attr source  uncorruptedFrameReceived
attr title  "uncorrupted frame received, vector(packetBytes)"
vector 467  Net802154MultiGateway.host[25].wrappedHost.wlan[0].mac  uncorruptedFrameReceived:vector(packetBytes)  ETV
attr interpolationmode  none
attr source  uncorruptedFrameReceived
attr title  "uncorrupted frame received, vector(packetBytes)"
vector 449  Net802154MultiGateway.host[24].wrappedHost.wlan[0].mac  uncorruptedFrameReceived:vector(packetBytes)  ETV
attr interpolationmode  none
attr source  uncorruptedFrameReceived
attr title  "uncorrupted frame received, vector(packetBytes)"
vector 484  Net802154MultiGateway.host[26].wrappedHost.wlan[0].mac  corruptedFrameReceived:vector(packetBytes)  ETV
attr interpolationmode  none
attr source  corruptedFrameReceived
attr title  "corrupted frame received, vector(packetBytes)"
vector 1079  Net802154MultiGateway.host[59].wrappedHost.wlan[0].mac  uncorruptedFrameReceived:vector(packetBytes)  ETV
attr interpolationmode  none
attr source  uncorruptedFrameReceived
attr title  "uncorrupted frame received, vector(packetBytes)"
vector 629  Net802154MultiGateway.host[34].wrappedHost.wlan[0].mac  uncorruptedFrameReceived:vector(packetBytes)  ETV
attr interpolationmode  none
attr source  uncorruptedFrameReceived
attr title  "uncorrupted frame received, vector(packetBytes)"
vector 1097  Net802154MultiGateway.host[60].wrappedHost.wlan[0].mac  uncorruptedFrameReceived:vector(packetBytes)  ETV
attr interpolationmode  none
attr source  uncorruptedFrameReceived
attr title  "uncorrupted frame received, vector(packetBytes)"
vector 323  Net802154MultiGateway.host[17].wrappedHost.wlan[0].mac  uncorruptedFrameReceived:vector(packetBytes)  ETV
attr interpolationmode  none
attr source  uncorruptedFrameReceived
attr title  "uncorrupted frame received, vector(packetBytes)"
vector 1061  Net802154MultiGateway.host[58].wrappedHost.wlan[0].mac  uncorruptedFrameReceived:vector(packetBytes)  ETV
attr interpolationmode  none
attr source  uncorruptedFrameReceived
attr title  "uncorrupted frame received, vector(packetBytes)"
vector 1114  Net802154MultiGateway.host[61].wrappedHost.wlan[0].mac  corruptedFrameReceived:vector(packetBytes)  ETV
attr interpolationmode  none
attr source  corruptedFrameReceived
attr title  "corrupted frame received, vector(packetBytes)"
vector 215  Net802154MultiGateway.host[11].wrappedHost.wlan[0].mac  uncorruptedFrameReceived:vector(packetBytes)  ETV
attr interpolationmode  none
attr source  uncorruptedFrameReceived
attr title  "uncorrupted frame received, vector(packetBytes)"
vector 305  Net802154MultiGateway.host[16].wrappedHost.wlan[0].mac  uncorruptedFrameReceived:vector(packetBytes)  ETV
attr interpolationmode  none
attr source  uncorruptedFrameReceived
attr title  "uncorrupted frame received, vector(packetBytes)"
vector 197  Net802154MultiGateway.host[10].wrappedHost.wlan[0].mac  uncorruptedFrameReceived:vector(packetBytes)  ETV
attr interpolationmode  none
attr source  uncorruptedFrameReceived
attr title  "uncorrupted frame received, vector(packetBytes)"
vector 142  Net802154MultiGateway.host[7].wrappedHost.wlan[0].mac  corruptedFrameReceived:vector(packetBytes)  ETV
attr interpolationmode  none
attr source  corruptedFrameReceived
attr title  "corrupted frame received, vector(packetBytes)"
vector 287  Net802154MultiGateway.host[15].wrappedHost.wlan[0].mac  uncorruptedFrameReceived:vector(packetBytes)  ETV
attr interpolationmode  none
attr source  uncorruptedFrameReceived
attr title  "uncorrupted frame received, vector(packetBytes)"
vector 178  Net802154MultiGateway.host[9].wrappedHost.wlan[0].mac  corruptedFrameReceived:vector(packetBytes)  ETV
attr interpolationmode  none
attr source  corruptedFrameReceived
attr title  "corrupted frame received, vector(packetBytes)"
vector 250  Net802154MultiGateway.host[13].wrappedHost.wlan[0].mac  corruptedFrameReceived:vector(packetBytes)  ETV
attr interpolationmode  none
attr source  corruptedFrameReceived
attr title  "corrupted frame received, vector(packetBytes)"
vector 179  Net802154MultiGateway.host[9].wrappedHost.wlan[0].mac  uncorruptedFrameReceived:vector(packetBytes)  ETV
attr interpolationmode  none
attr source  uncorruptedFrameReceived
attr title  "uncorrupted frame received, vector(packetBytes)"
vector 88  Net802154MultiGateway.host[4].wrappedHost.wlan[0].mac  corruptedFrameReceived:vector(packetBytes)  ETV
attr interpolationmode  none
attr source  corruptedFrameReceived
attr title  "corrupted frame received, vector(packetBytes)"
vector 34  Net802154MultiGateway.host[1].wrappedHost.wlan[0].mac  corruptedFrameReceived:vector(packetBytes)  ETV
attr interpolationmode  none
attr source  corruptedFrameReceived
attr title  "corrupted frame received, vector(packetBytes)"
vector 106  Net802154MultiGateway.host[5].wrappedHost.wlan[0].mac  corruptedFrameReceived:vector(packetBytes)  ETV
attr interpolationmode  none
attr source  corruptedFrameReceived
attr title  "corrupted frame received, vector(packetBytes)"
vector 70  Net802154MultiGateway.host[3].wrappedHost.wlan[0].mac  corruptedFrameReceived:vector(packetBytes)  ETV
attr interpolationmode  none
attr source  corruptedFrameReceived
attr title  "corrupted frame received, vector(packetBytes)"
vector 322  Net802154MultiGateway.host[17].wrappedHost.wlan[0].mac  corruptedFrameReceived:vector(packetBytes)  ETV
attr interpolationmode  none
attr source  corruptedFrameReceived
attr title  "corrupted frame received, vector(packetBytes)"
vector 935  Net802154MultiGateway.host[51].wrappedHost.wlan[0].mac  uncorruptedFrameReceived:vector(packetBytes)  ETV
attr interpolationmode  none
attr source  uncorruptedFrameReceived
attr title  "uncorrupted frame received, vector(packetBytes)"
vector 971  Net802154MultiGateway.host[53].wrappedHost.wlan[0].mac  uncorruptedFrameReceived:vector(packetBytes)  ETV
attr interpolationmode  none
attr source  uncorruptedFrameReceived
attr title  "uncorrupted frame received, vector(packetBytes)"
vector 557  Net802154MultiGateway.host[30].wrappedHost.wlan[0].mac  uncorruptedFrameReceived:vector(packetBytes)  ETV
attr interpolationmode  none
attr source  uncorruptedFrameReceived
attr title  "uncorrupted frame received, vector(packetBytes)"
vector 539  Net802154MultiGateway.host[29].wrappedHost.wlan[0].mac  uncorruptedFrameReceived:vector(packetBytes)  ETV
attr interpolationmode  none
attr source  uncorruptedFrameReceived
attr title  "uncorrupted frame received, vector(packetBytes)"
vector 574  Net802154MultiGateway.host[31].wrappedHost.wlan[0].mac  corruptedFrameReceived:vector(packetBytes)  ETV
attr interpolationmode  none
attr source  corruptedFrameReceived
attr title  "corrupted frame received, vector(packetBytes)"
vector 593  Net802154MultiGateway.host[32].wrappedHost.wlan[0].mac  uncorruptedFrameReceived:vector(packetBytes)  ETV
attr interpolationmode  none
attr source  uncorruptedFrameReceived
attr title  "uncorrupted frame received, vector(packetBytes)"
vector 1025  Net802154MultiGateway.host[56].wrappedHost.wlan[0].mac  uncorruptedFrameReceived:vector(packetBytes)  ETV
attr interpolationmode  none
attr source  uncorruptedFrameReceived
attr title  "uncorrupted frame received, vector(packetBytes)"
vector 1043  Net802154MultiGateway.host[57].wrappedHost.wlan[0].mac  uncorruptedFrameReceived:vector(packetBytes)  ETV
attr interpolationmode  none
attr source  uncorruptedFrameReceived
attr title  "uncorrupted frame received, vector(packetBytes)"
vector 1007  Net802154MultiGateway.host[55].wrappedHost.wlan[0].mac  uncorruptedFrameReceived:vector(packetBytes)  ETV
attr interpolationmode  none
attr source  uncorruptedFrameReceived
attr title  "uncorrupted frame received, vector(packetBytes)"
vector 431  Net802154MultiGateway.host[23].wrappedHost.wlan[0].mac  uncorruptedFrameReceived:vector(packetBytes)  ETV
attr interpolationmode  none
attr source  uncorruptedFrameReceived
attr title  "uncorrupted frame received, vector(packetBytes)"
vector 412  Net802154MultiGateway.host[22].wrappedHost.wlan[0].mac  corruptedFrameReceived:vector(packetBytes)  ETV
attr interpolationmode  none
attr source  corruptedFrameReceived
attr title  "corrupted frame received, vector(packetBytes)"
vector 466  Net802154MultiGateway.host[25].wrappedHost.wlan[0].mac  corruptedFrameReceived:vector(packetBytes)  ETV
attr interpolationmode  none
attr source  corruptedFrameReceived
attr title  "corrupted frame received, vector(packetBytes)"
vector 791  Net802154MultiGateway.host[43].wrappedHost.wlan[0].mac  uncorruptedFrameReceived:vector(packetBytes)  ETV
attr interpolationmode  none
attr source  uncorruptedFrameReceived
attr title  "uncorrupted frame received, vector(packetBytes)"
vector 827  Net802154MultiGateway.host[45].wrappedHost.wlan[0].mac  uncorruptedFrameReceived:vector(packetBytes)  ETV
attr interpolationmode  none
attr source  uncorruptedFrameReceived
attr title  "uncorrupted frame received, vector(packetBytes)"
vector 755  Net802154MultiGateway.host[41].wrappedHost.wlan[0].mac  uncorruptedFrameReceived:vector(packetBytes)  ETV
attr interpolationmode  none
attr source  uncorruptedFrameReceived
attr title  "uncorrupted frame received, vector(packetBytes)"
vector 413  Net802154MultiGateway.host[22].wrappedHost.wlan[0].mac  uncorruptedFrameReceived:vector(packetBytes)  ETV
attr interpolationmode  none
attr source  uncorruptedFrameReceived
attr title  "uncorrupted frame received, vector(packetBytes)"
vector 359  Net802154MultiGateway.host[19].wrappedHost.wlan[0].mac  uncorruptedFrameReceived:vector(packetBytes)  ETV
attr interpolationmode  none
attr source  uncorruptedFrameReceived
attr title  "uncorrupted frame received, vector(packetBytes)"
vector 395  Net802154MultiGateway.host[21].wrappedHost.wlan[0].mac  uncorruptedFrameReceived:vector(packetBytes)  ETV
attr interpolationmode  none
attr source  uncorruptedFrameReceived
attr title  "uncorrupted frame received, vector(packetBytes)"
vector 719  Net802154MultiGateway.host[39].wrappedHost.wlan[0].mac  uncorruptedFrameReceived:vector(packetBytes)  ETV
attr interpolationmode  none
attr source  uncorruptedFrameReceived
attr title  "uncorrupted frame received, vector(packetBytes)"
vector 736  Net802154MultiGateway.host[40].wrappedHost.wlan[0].mac  corruptedFrameReceived:vector(packetBytes)  ETV
attr interpolationmode  none
attr source  corruptedFrameReceived
attr title  "corrupted frame received, vector(packetBytes)"
vector 881  Net802154MultiGateway.host[48].wrappedHost.wlan[0].mac  uncorruptedFrameReceived:vector(packetBytes)  ETV
attr interpolationmode  none
attr source  uncorruptedFrameReceived
attr title  "uncorrupted frame received, vector(packetBytes)"
vector 485  Net802154MultiGateway.host[26].wrappedHost.wlan[0].mac  uncorruptedFrameReceived:vector(packetBytes)  ETV
attr interpolationmode  none
attr source  uncorruptedFrameReceived
attr title  "uncorrupted frame received, vector(packetBytes)"
vector 503  Net802154MultiGateway.host[27].wrappedHost.wlan[0].mac  uncorruptedFrameReceived:vector(packetBytes)  ETV
attr interpolationmode  none
attr source  uncorruptedFrameReceived
attr title  "uncorrupted frame received, vector(packetBytes)"
vector 863  Net802154MultiGateway.host[47].wrappedHost.wlan[0].mac  uncorruptedFrameReceived:vector(packetBytes)  ETV
attr interpolationmode  none
attr source  uncorruptedFrameReceived
attr title  "uncorrupted frame received, vector(packetBytes)"
vector 647  Net802154MultiGateway.host[35].wrappedHost.wlan[0].mac  uncorruptedFrameReceived:vector(packetBytes)  ETV
attr interpolationmode  none
attr source  uncorruptedFrameReceived
attr title  "uncorrupted frame received, vector(packetBytes)"
vector 1078  Net802154MultiGateway.host[59].wrappedHost.wlan[0].mac  corruptedFrameReceived:vector(packetBytes)  ETV
attr interpolationmode  none
attr source  corruptedFrameReceived
attr title  "corrupted frame received, vector(packetBytes)"
vector 521  Net802154MultiGateway.host[28].wrappedHost.wlan[0].mac  uncorruptedFrameReceived:vector(packetBytes)  ETV
attr interpolationmode  none
attr source  uncorruptedFrameReceived
attr title  "uncorrupted frame received, vector(packetBytes)"
vector 575  Net802154MultiGateway.host[31].wrappedHost.wlan[0].mac  uncorruptedFrameReceived:vector(packetBytes)  ETV
attr interpolationmode  none
attr source  uncorruptedFrameReceived
attr title  "uncorrupted frame received, vector(packetBytes)"
vector 737  Net802154MultiGateway.host[40].wrappedHost.wlan[0].mac  uncorruptedFrameReceived:vector(packetBytes)  ETV
attr interpolationmode  none
attr source  uncorruptedFrameReceived
attr title  "uncorrupted frame received, vector(packetBytes)"
vector 917  Net802154MultiGateway.host[50].wrappedHost.wlan[0].mac  uncorruptedFrameReceived:vector(packetBytes)  ETV
attr interpolationmode  none
attr source  uncorruptedFrameReceived
attr title  "uncorrupted frame received, vector(packetBytes)"
vector 953  Net802154MultiGateway.host[52].wrappedHost.wlan[0].mac  uncorruptedFrameReceived:vector(packetBytes)  ETV
attr interpolationmode  none
attr source  uncorruptedFrameReceived
attr title  "uncorrupted frame received, vector(packetBytes)"
vector 899  Net802154MultiGateway.host[49].wrappedHost.wlan[0].mac  uncorruptedFrameReceived:vector(packetBytes)  ETV
attr interpolationmode  none
attr source  uncorruptedFrameReceived
attr title  "uncorrupted frame received, vector(packetBytes)"
vector 611  Net802154MultiGateway.host[33].wrappedHost.wlan[0].mac  uncorruptedFrameReceived:vector(packetBytes)  ETV
attr interpolationmode  none
attr source  uncorruptedFrameReceived
attr title  "uncorrupted frame received, vector(packetBytes)"
vector 268  Net802154MultiGateway.host[14].wrappedHost.wlan[0].mac  corruptedFrameReceived:vector(packetBytes)  ETV
attr interpolationmode  none
attr source  corruptedFrameReceived
attr title  "corrupted frame received, vector(packetBytes)"
vector 358  Net802154MultiGateway.host[19].wrappedHost.wlan[0].mac  corruptedFrameReceived:vector(packetBytes)  ETV
attr interpolationmode  none
attr source  corruptedFrameReceived
attr title  "corrupted frame received, vector(packetBytes)"
vector 15  Net802154MultiGateway.host[0].wrappedHost.wlan[0].mac  broadDataSentDown:vector(packetBytes)  ETV
attr interpolationmode  none
attr source  broadcastDataSentDown
attr title  "broadcast packet sent down of type DATA, vector(packetBytes)"
vector 69  Net802154MultiGateway.host[3].wrappedHost.wlan[0].mac  broadDataSentDown:vector(packetBytes)  ETV
attr interpolationmode  none
attr source  broadcastDataSentDown
attr title  "broadcast packet sent down of type DATA, vector(packetBytes)"
vector 249  Net802154MultiGateway.host[13].wrappedHost.wlan[0].mac  broadDataSentDown:vector(packetBytes)  ETV
attr interpolationmode  none
attr source  broadcastDataSentDown
attr title  "broadcast packet sent down of type DATA, vector(packetBytes)"
vector 989  Net802154MultiGateway.host[54].wrappedHost.wlan[0].mac  uncorruptedFrameReceived:vector(packetBytes)  ETV
attr interpolationmode  none
attr source  uncorruptedFrameReceived
attr title  "uncorrupted frame received, vector(packetBytes)"
vector 773  Net802154MultiGateway.host[42].wrappedHost.wlan[0].mac  uncorruptedFrameReceived:vector(packetBytes)  ETV
attr interpolationmode  none
attr source  uncorruptedFrameReceived
attr title  "uncorrupted frame received, vector(packetBytes)"
vector 394  Net802154MultiGateway.host[21].wrappedHost.wlan[0].mac  corruptedFrameReceived:vector(packetBytes)  ETV
attr interpolationmode  none
attr source  corruptedFrameReceived
attr title  "corrupted frame received, vector(packetBytes)"
vector 51  Net802154MultiGateway.host[2].wrappedHost.wlan[0].mac  broadDataSentDown:vector(packetBytes)  ETV
attr interpolationmode  none
attr source  broadcastDataSentDown
attr title  "broadcast packet sent down of type DATA, vector(packetBytes)"
vector 159  Net802154MultiGateway.host[8].wrappedHost.wlan[0].mac  broadDataSentDown:vector(packetBytes)  ETV
attr interpolationmode  none
attr source  broadcastDataSentDown
attr title  "broadcast packet sent down of type DATA, vector(packetBytes)"
vector 141  Net802154MultiGateway.host[7].wrappedHost.wlan[0].mac  broadDataSentDown:vector(packetBytes)  ETV
attr interpolationmode  none
attr source  broadcastDataSentDown
attr title  "broadcast packet sent down of type DATA, vector(packetBytes)"
vector 339  Net802154MultiGateway.host[18].wrappedHost.wlan[0].mac  broadDataSentDown:vector(packetBytes)  ETV
attr interpolationmode  none
attr source  broadcastDataSentDown
attr title  "broadcast packet sent down of type DATA, vector(packetBytes)"
vector 195  Net802154MultiGateway.host[10].wrappedHost.wlan[0].mac  broadDataSentDown:vector(packetBytes)  ETV
attr interpolationmode  none
attr source  broadcastDataSentDown
attr title  "broadcast packet sent down of type DATA, vector(packetBytes)"
vector 610  Net802154MultiGateway.host[33].wrappedHost.wlan[0].mac  corruptedFrameReceived:vector(packetBytes)  ETV
attr interpolationmode  none
attr source  corruptedFrameReceived
attr title  "corrupted frame received, vector(packetBytes)"
vector 502  Net802154MultiGateway.host[27].wrappedHost.wlan[0].mac  corruptedFrameReceived:vector(packetBytes)  ETV
attr interpolationmode  none
attr source  corruptedFrameReceived
attr title  "corrupted frame received, vector(packetBytes)"
vector 196  Net802154MultiGateway.host[10].wrappedHost.wlan[0].mac  corruptedFrameReceived:vector(packetBytes)  ETV
attr interpolationmode  none
attr source  corruptedFrameReceived
attr title  "corrupted frame received, vector(packetBytes)"
vector 33  Net802154MultiGateway.host[1].wrappedHost.wlan[0].mac  broadDataSentDown:vector(packetBytes)  ETV
attr interpolationmode  none
attr source  broadcastDataSentDown
attr title  "broadcast packet sent down of type DATA, vector(packetBytes)"
vector 520  Net802154MultiGateway.host[28].wrappedHost.wlan[0].mac  corruptedFrameReceived:vector(packetBytes)  ETV
attr interpolationmode  none
attr source  corruptedFrameReceived
attr title  "corrupted frame received, vector(packetBytes)"
vector 105  Net802154MultiGateway.host[5].wrappedHost.wlan[0].mac  broadDataSentDown:vector(packetBytes)  ETV
attr interpolationmode  none
attr source  broadcastDataSentDown
attr title  "broadcast packet sent down of type DATA, vector(packetBytes)"
vector 160  Net802154MultiGateway.host[8].wrappedHost.wlan[0].mac  corruptedFrameReceived:vector(packetBytes)  ETV
attr interpolationmode  none
attr source  corruptedFrameReceived
attr title  "corrupted frame received, vector(packetBytes)"
vector 231  Net802154MultiGateway.host[12].wrappedHost.wlan[0].mac  broadDataSentDown:vector(packetBytes)  ETV
attr interpolationmode  none
attr source  broadcastDataSentDown
attr title  "broadcast packet sent down of type DATA, vector(packetBytes)"
vector 808  Net802154MultiGateway.host[44].wrappedHost.wlan[0].mac  corruptedFrameReceived:vector(packetBytes)  ETV
attr interpolationmode  none
attr source  corruptedFrameReceived
attr title  "corrupted frame received, vector(packetBytes)"
vector 700  Net802154MultiGateway.host[38].wrappedHost.wlan[0].mac  corruptedFrameReceived:vector(packetBytes)  ETV
attr interpolationmode  none
attr source  corruptedFrameReceived
attr title  "corrupted frame received, vector(packetBytes)"
vector 87  Net802154MultiGateway.host[4].wrappedHost.wlan[0].mac  broadDataSentDown:vector(packetBytes)  ETV
attr interpolationmode  none
attr source  broadcastDataSentDown
attr title  "broadcast packet sent down of type DATA, vector(packetBytes)"
vector 177  Net802154MultiGateway.host[9].wrappedHost.wlan[0].mac  broadDataSentDown:vector(packetBytes)  ETV
attr interpolationmode  none
attr source  broadcastDataSentDown
attr title  "broadcast packet sent down of type DATA, vector(packetBytes)"
vector 501  Net802154MultiGateway.host[27].wrappedHost.wlan[0].mac  broadDataSentDown:vector(packetBytes)  ETV
attr interpolationmode  none
attr source  broadcastDataSentDown
attr title  "broadcast packet sent down of type DATA, vector(packetBytes)"
vector 826  Net802154MultiGateway.host[45].wrappedHost.wlan[0].mac  corruptedFrameReceived:vector(packetBytes)  ETV
attr interpolationmode  none
attr source  corruptedFrameReceived
attr title  "corrupted frame received, vector(packetBytes)"
vector 862  Net802154MultiGateway.host[47].wrappedHost.wlan[0].mac  corruptedFrameReceived:vector(packetBytes)  ETV
attr interpolationmode  none
attr source  corruptedFrameReceived
attr title  "corrupted frame received, vector(packetBytes)"
vector 628  Net802154MultiGateway.host[34].wrappedHost.wlan[0].mac  corruptedFrameReceived:vector(packetBytes)  ETV
attr interpolationmode  none
attr source  corruptedFrameReceived
attr title  "corrupted frame received, vector(packetBytes)"
vector 213  Net802154MultiGateway.host[11].wrappedHost.wlan[0].mac  broadDataSentDown:vector(packetBytes)  ETV
attr interpolationmode  none
attr source  broadcastDataSentDown
attr title  "broadcast packet sent down of type DATA, vector(packetBytes)"
vector 682  Net802154MultiGateway.host[37].wrappedHost.wlan[0].mac  corruptedFrameReceived:vector(packetBytes)  ETV
attr interpolationmode  none
attr source  corruptedFrameReceived
attr title  "corrupted frame received, vector(packetBytes)"
vector 646  Net802154MultiGateway.host[35].wrappedHost.wlan[0].mac  corruptedFrameReceived:vector(packetBytes)  ETV
attr interpolationmode  none
attr source  corruptedFrameReceived
attr title  "corrupted frame received, vector(packetBytes)"
vector 556  Net802154MultiGateway.host[30].wrappedHost.wlan[0].mac  corruptedFrameReceived:vector(packetBytes)  ETV
attr interpolationmode  none
attr source  corruptedFrameReceived
attr title  "corrupted frame received, vector(packetBytes)"
vector 934  Net802154MultiGateway.host[51].wrappedHost.wlan[0].mac  corruptedFrameReceived:vector(packetBytes)  ETV
attr interpolationmode  none
attr source  corruptedFrameReceived
attr title  "corrupted frame received, vector(packetBytes)"
vector 988  Net802154MultiGateway.host[54].wrappedHost.wlan[0].mac  corruptedFrameReceived:vector(packetBytes)  ETV
attr interpolationmode  none
attr source  corruptedFrameReceived
attr title  "corrupted frame received, vector(packetBytes)"
vector 754  Net802154MultiGateway.host[41].wrappedHost.wlan[0].mac  corruptedFrameReceived:vector(packetBytes)  ETV
attr interpolationmode  none
attr source  corruptedFrameReceived
attr title  "corrupted frame received, vector(packetBytes)"
vector 304  Net802154MultiGateway.host[16].wrappedHost.wlan[0].mac  corruptedFrameReceived:vector(packetBytes)  ETV
attr interpolationmode  none
attr source  corruptedFrameReceived
attr title  "corrupted frame received, vector(packetBytes)"
vector 340  Net802154MultiGateway.host[18].wrappedHost.wlan[0].mac  corruptedFrameReceived:vector(packetBytes)  ETV
attr interpolationmode  none
attr source  corruptedFrameReceived
attr title  "corrupted frame received, vector(packetBytes)"
vector 376  Net802154MultiGateway.host[20].wrappedHost.wlan[0].mac  corruptedFrameReceived:vector(packetBytes)  ETV
attr interpolationmode  none
attr source  corruptedFrameReceived
attr title  "corrupted frame received, vector(packetBytes)"
vector 430  Net802154MultiGateway.host[23].wrappedHost.wlan[0].mac  corruptedFrameReceived:vector(packetBytes)  ETV
attr interpolationmode  none
attr source  corruptedFrameReceived
attr title  "corrupted frame received, vector(packetBytes)"
vector 664  Net802154MultiGateway.host[36].wrappedHost.wlan[0].mac  corruptedFrameReceived:vector(packetBytes)  ETV
attr interpolationmode  none
attr source  corruptedFrameReceived
attr title  "corrupted frame received, vector(packetBytes)"
vector 232  Net802154MultiGateway.host[12].wrappedHost.wlan[0].mac  corruptedFrameReceived:vector(packetBytes)  ETV
attr interpolationmode  none
attr source  corruptedFrameReceived
attr title  "corrupted frame received, vector(packetBytes)"
vector 1060  Net802154MultiGateway.host[58].wrappedHost.wlan[0].mac  corruptedFrameReceived:vector(packetBytes)  ETV
attr interpolationmode  none
attr source  corruptedFrameReceived
attr title  "corrupted frame received, vector(packetBytes)"
vector 537  Net802154MultiGateway.host[29].wrappedHost.wlan[0].mac  broadDataSentDown:vector(packetBytes)  ETV
attr interpolationmode  none
attr source  broadcastDataSentDown
attr title  "broadcast packet sent down of type DATA, vector(packetBytes)"
vector 789  Net802154MultiGateway.host[43].wrappedHost.wlan[0].mac  broadDataSentDown:vector(packetBytes)  ETV
attr interpolationmode  none
attr source  broadcastDataSentDown
attr title  "broadcast packet sent down of type DATA, vector(packetBytes)"
vector 429  Net802154MultiGateway.host[23].wrappedHost.wlan[0].mac  broadDataSentDown:vector(packetBytes)  ETV
attr interpolationmode  none
attr source  broadcastDataSentDown
attr title  "broadcast packet sent down of type DATA, vector(packetBytes)"
vector 861  Net802154MultiGateway.host[47].wrappedHost.wlan[0].mac  broadDataSentDown:vector(packetBytes)  ETV
attr interpolationmode  none
attr source  broadcastDataSentDown
attr title  "broadcast packet sent down of type DATA, vector(packetBytes)"
vector 915  Net802154MultiGateway.host[50].wrappedHost.wlan[0].mac  broadDataSentDown:vector(packetBytes)  ETV
attr interpolationmode  none
attr source  broadcastDataSentDown
attr title  "broadcast packet sent down of type DATA, vector(packetBytes)"
vector 951  Net802154MultiGateway.host[52].wrappedHost.wlan[0].mac  broadDataSentDown:vector(packetBytes)  ETV
attr interpolationmode  none
attr source  broadcastDataSentDown
attr title  "broadcast packet sent down of type DATA, vector(packetBytes)"
vector 357  Net802154MultiGateway.host[19].wrappedHost.wlan[0].mac  broadDataSentDown:vector(packetBytes)  ETV
attr interpolationmode  none
attr source  broadcastDataSentDown
attr title  "broadcast packet sent down of type DATA, vector(packetBytes)"
vector 880  Net802154MultiGateway.host[48].wrappedHost.wlan[0].mac  corruptedFrameReceived:vector(packetBytes)  ETV
attr interpolationmode  none
attr source  corruptedFrameReceived
attr title  "corrupted frame received, vector(packetBytes)"
vector 609  Net802154MultiGateway.host[33].wrappedHost.wlan[0].mac  broadDataSentDown:vector(packetBytes)  ETV
attr interpolationmode  none
attr source  broadcastDataSentDown
attr title  "broadcast packet sent down of type DATA, vector(packetBytes)"
vector 465  Net802154MultiGateway.host[25].wrappedHost.wlan[0].mac  broadDataSentDown:vector(packetBytes)  ETV
attr interpolationmode  none
attr source  broadcastDataSentDown
attr title  "broadcast packet sent down of type DATA, vector(packetBytes)"
vector 952  Net802154MultiGateway.host[52].wrappedHost.wlan[0].mac  corruptedFrameReceived:vector(packetBytes)  ETV
attr interpolationmode  none
attr source  corruptedFrameReceived
attr title  "corrupted frame received, vector(packetBytes)"
vector 969  Net802154MultiGateway.host[53].wrappedHost.wlan[0].mac  broadDataSentDown:vector(packetBytes)  ETV
attr interpolationmode  none
attr source  broadcastDataSentDown
attr title  "broadcast packet sent down of type DATA, vector(packetBytes)"
vector 303  Net802154MultiGateway.host[16].wrappedHost.wlan[0].mac  broadDataSentDown:vector(packetBytes)  ETV
attr interpolationmode  none
attr source  broadcastDataSentDown
attr title  "broadcast packet sent down of type DATA, vector(packetBytes)"
vector 321  Net802154MultiGateway.host[17].wrappedHost.wlan[0].mac  broadDataSentDown:vector(packetBytes)  ETV
attr interpolationmode  none
attr source  broadcastDataSentDown
attr title  "broadcast packet sent down of type DATA, vector(packetBytes)"
vector 267  Net802154MultiGateway.host[14].wrappedHost.wlan[0].mac  broadDataSentDown:vector(packetBytes)  ETV
attr interpolationmode  none
attr source  broadcastDataSentDown
attr title  "broadcast packet sent down of type DATA, vector(packetBytes)"
vector 627  Net802154MultiGateway.host[34].wrappedHost.wlan[0].mac  broadDataSentDown:vector(packetBytes)  ETV
attr interpolationmode  none
attr source  broadcastDataSentDown
attr title  "broadcast packet sent down of type DATA, vector(packetBytes)"
vector 807  Net802154MultiGateway.host[44].wrappedHost.wlan[0].mac  broadDataSentDown:vector(packetBytes)  ETV
attr interpolationmode  none
attr source  broadcastDataSentDown
attr title  "broadcast packet sent down of type DATA, vector(packetBytes)"
vector 375  Net802154MultiGateway.host[20].wrappedHost.wlan[0].mac  broadDataSentDown:vector(packetBytes)  ETV
attr interpolationmode  none
attr source  broadcastDataSentDown
attr title  "broadcast packet sent down of type DATA, vector(packetBytes)"
vector 393  Net802154MultiGateway.host[21].wrappedHost.wlan[0].mac  broadDataSentDown:vector(packetBytes)  ETV
attr interpolationmode  none
attr source  broadcastDataSentDown
attr title  "broadcast packet sent down of type DATA, vector(packetBytes)"
vector 123  Net802154MultiGateway.host[6].wrappedHost.wlan[0].mac  broadDataSentDown:vector(packetBytes)  ETV
attr interpolationmode  none
attr source  broadcastDataSentDown
attr title  "broadcast packet sent down of type DATA, vector(packetBytes)"
vector 447  Net802154MultiGateway.host[24].wrappedHost.wlan[0].mac  broadDataSentDown:vector(packetBytes)  ETV
attr interpolationmode  none
attr source  broadcastDataSentDown
attr title  "broadcast packet sent down of type DATA, vector(packetBytes)"
vector 843  Net802154MultiGateway.host[46].wrappedHost.wlan[0].mac  broadDataSentDown:vector(packetBytes)  ETV
attr interpolationmode  none
attr source  broadcastDataSentDown
attr title  "broadcast packet sent down of type DATA, vector(packetBytes)"
vector 1041  Net802154MultiGateway.host[57].wrappedHost.wlan[0].mac  broadDataSentDown:vector(packetBytes)  ETV
attr interpolationmode  none
attr source  broadcastDataSentDown
attr title  "broadcast packet sent down of type DATA, vector(packetBytes)"
vector 735  Net802154MultiGateway.host[40].wrappedHost.wlan[0].mac  broadDataSentDown:vector(packetBytes)  ETV
attr interpolationmode  none
attr source  broadcastDataSentDown
attr title  "broadcast packet sent down of type DATA, vector(packetBytes)"
vector 1077  Net802154MultiGateway.host[59].wrappedHost.wlan[0].mac  broadDataSentDown:vector(packetBytes)  ETV
attr interpolationmode  none
attr source  broadcastDataSentDown
attr title  "broadcast packet sent down of type DATA, vector(packetBytes)"
vector 483  Net802154MultiGateway.host[26].wrappedHost.wlan[0].mac  broadDataSentDown:vector(packetBytes)  ETV
attr interpolationmode  none
attr source  broadcastDataSentDown
attr title  "broadcast packet sent down of type DATA, vector(packetBytes)"
vector 897  Net802154MultiGateway.host[49].wrappedHost.wlan[0].mac  broadDataSentDown:vector(packetBytes)  ETV
attr interpolationmode  none
attr source  broadcastDataSentDown
attr title  "broadcast packet sent down of type DATA, vector(packetBytes)"
vector 1006  Net802154MultiGateway.host[55].wrappedHost.wlan[0].mac  corruptedFrameReceived:vector(packetBytes)  ETV
attr interpolationmode  none
attr source  corruptedFrameReceived
attr title  "corrupted frame received, vector(packetBytes)"
vector 9  Net802154MultiGateway.host[0].wrappedHost.trafficgen  sentDummyPk:vector(packetBytes)  ETV
attr interpolationmode  none
attr source  sentDummyPk
attr title  "dummy packets sent, vector(packetBytes)"
vector 27  Net802154MultiGateway.host[1].wrappedHost.trafficgen  sentDummyPk:vector(packetBytes)  ETV
attr interpolationmode  none
attr source  sentDummyPk
attr title  "dummy packets sent, vector(packetBytes)"
vector 45  Net802154MultiGateway.host[2].wrappedHost.trafficgen  sentDummyPk:vector(packetBytes)  ETV
attr interpolationmode  none
attr source  sentDummyPk
attr title  "dummy packets sent, vector(packetBytes)"
vector 63  Net802154MultiGateway.host[3].wrappedHost.trafficgen  sentDummyPk:vector(packetBytes)  ETV
attr interpolationmode  none
attr source  sentDummyPk
attr title  "dummy packets sent, vector(packetBytes)"
vector 81  Net802154MultiGateway.host[4].wrappedHost.trafficgen  sentDummyPk:vector(packetBytes)  ETV
attr interpolationmode  none
attr source  sentDummyPk
attr title  "dummy packets sent, vector(packetBytes)"
vector 99  Net802154MultiGateway.host[5].wrappedHost.trafficgen  sentDummyPk:vector(packetBytes)  ETV
attr interpolationmode  none
attr source  sentDummyPk
attr title  "dummy packets sent, vector(packetBytes)"
vector 117  Net802154MultiGateway.host[6].wrappedHost.trafficgen  sentDummyPk:vector(packetBytes)  ETV
attr interpolationmode  none
attr source  sentDummyPk
attr title  "dummy packets sent, vector(packetBytes)"
vector 135  Net802154MultiGateway.host[7].wrappedHost.trafficgen  sentDummyPk:vector(packetBytes)  ETV
attr interpolationmode  none
attr source  sentDummyPk
attr title  "dummy packets sent, vector(packetBytes)"
vector 153  Net802154MultiGateway.host[8].wrappedHost.trafficgen  sentDummyPk:vector(packetBytes)  ETV
attr interpolationmode  none
attr source  sentDummyPk
attr title  "dummy packets sent, vector(packetBytes)"
vector 171  Net802154MultiGateway.host[9].wrappedHost.trafficgen  sentDummyPk:vector(packetBytes)  ETV
attr interpolationmode  none
attr source  sentDummyPk
attr title  "dummy packets sent, vector(packetBytes)"
vector 189  Net802154MultiGateway.host[10].wrappedHost.trafficgen  sentDummyPk:vector(packetBytes)  ETV
attr interpolationmode  none
attr source  sentDummyPk
attr title  "dummy packets sent, vector(packetBytes)"
vector 207  Net802154MultiGateway.host[11].wrappedHost.trafficgen  sentDummyPk:vector(packetBytes)  ETV
attr interpolationmode  none
attr source  sentDummyPk
attr title  "dummy packets sent, vector(packetBytes)"
vector 225  Net802154MultiGateway.host[12].wrappedHost.trafficgen  sentDummyPk:vector(packetBytes)  ETV
attr interpolationmode  none
attr source  sentDummyPk
attr title  "dummy packets sent, vector(packetBytes)"
vector 243  Net802154MultiGateway.host[13].wrappedHost.trafficgen  sentDummyPk:vector(packetBytes)  ETV
attr interpolationmode  none
attr source  sentDummyPk
attr title  "dummy packets sent, vector(packetBytes)"
vector 261  Net802154MultiGateway.host[14].wrappedHost.trafficgen  sentDummyPk:vector(packetBytes)  ETV
attr interpolationmode  none
attr source  sentDummyPk
attr title  "dummy packets sent, vector(packetBytes)"
vector 279  Net802154MultiGateway.host[15].wrappedHost.trafficgen  sentDummyPk:vector(packetBytes)  ETV
attr interpolationmode  none
attr source  sentDummyPk
attr title  "dummy packets sent, vector(packetBytes)"
vector 297  Net802154MultiGateway.host[16].wrappedHost.trafficgen  sentDummyPk:vector(packetBytes)  ETV
attr interpolationmode  none
attr source  sentDummyPk
attr title  "dummy packets sent, vector(packetBytes)"
vector 315  Net802154MultiGateway.host[17].wrappedHost.trafficgen  sentDummyPk:vector(packetBytes)  ETV
attr interpolationmode  none
attr source  sentDummyPk
attr title  "dummy packets sent, vector(packetBytes)"
vector 333  Net802154MultiGateway.host[18].wrappedHost.trafficgen  sentDummyPk:vector(packetBytes)  ETV
attr interpolationmode  none
attr source  sentDummyPk
attr title  "dummy packets sent, vector(packetBytes)"
vector 351  Net802154MultiGateway.host[19].wrappedHost.trafficgen  sentDummyPk:vector(packetBytes)  ETV
attr interpolationmode  none
attr source  sentDummyPk
attr title  "dummy packets sent, vector(packetBytes)"
vector 369  Net802154MultiGateway.host[20].wrappedHost.trafficgen  sentDummyPk:vector(packetBytes)  ETV
attr interpolationmode  none
attr source  sentDummyPk
attr title  "dummy packets sent, vector(packetBytes)"
vector 387  Net802154MultiGateway.host[21].wrappedHost.trafficgen  sentDummyPk:vector(packetBytes)  ETV
attr interpolationmode  none
attr source  sentDummyPk
attr title  "dummy packets sent, vector(packetBytes)"
vector 405  Net802154MultiGateway.host[22].wrappedHost.trafficgen  sentDummyPk:vector(packetBytes)  ETV
attr interpolationmode  none
attr source  sentDummyPk
attr title  "dummy packets sent, vector(packetBytes)"
vector 423  Net802154MultiGateway.host[23].wrappedHost.trafficgen  sentDummyPk:vector(packetBytes)  ETV
attr interpolationmode  none
attr source  sentDummyPk
attr title  "dummy packets sent, vector(packetBytes)"
vector 441  Net802154MultiGateway.host[24].wrappedHost.trafficgen  sentDummyPk:vector(packetBytes)  ETV
attr interpolationmode  none
attr source  sentDummyPk
attr title  "dummy packets sent, vector(packetBytes)"
vector 459  Net802154MultiGateway.host[25].wrappedHost.trafficgen  sentDummyPk:vector(packetBytes)  ETV
attr interpolationmode  none
attr source  sentDummyPk
attr title  "dummy packets sent, vector(packetBytes)"
vector 477  Net802154MultiGateway.host[26].wrappedHost.trafficgen  sentDummyPk:vector(packetBytes)  ETV
attr interpolationmode  none
attr source  sentDummyPk
attr title  "dummy packets sent, vector(packetBytes)"
vector 495  Net802154MultiGateway.host[27].wrappedHost.trafficgen  sentDummyPk:vector(packetBytes)  ETV
attr interpolationmode  none
attr source  sentDummyPk
attr title  "dummy packets sent, vector(packetBytes)"
vector 513  Net802154MultiGateway.host[28].wrappedHost.trafficgen  sentDummyPk:vector(packetBytes)  ETV
attr interpolationmode  none
attr source  sentDummyPk
attr title  "dummy packets sent, vector(packetBytes)"
vector 531  Net802154MultiGateway.host[29].wrappedHost.trafficgen  sentDummyPk:vector(packetBytes)  ETV
attr interpolationmode  none
attr source  sentDummyPk
attr title  "dummy packets sent, vector(packetBytes)"
vector 549  Net802154MultiGateway.host[30].wrappedHost.trafficgen  sentDummyPk:vector(packetBytes)  ETV
attr interpolationmode  none
attr source  sentDummyPk
attr title  "dummy packets sent, vector(packetBytes)"
vector 567  Net802154MultiGateway.host[31].wrappedHost.trafficgen  sentDummyPk:vector(packetBytes)  ETV
attr interpolationmode  none
attr source  sentDummyPk
attr title  "dummy packets sent, vector(packetBytes)"
vector 585  Net802154MultiGateway.host[32].wrappedHost.trafficgen  sentDummyPk:vector(packetBytes)  ETV
attr interpolationmode  none
attr source  sentDummyPk
attr title  "dummy packets sent, vector(packetBytes)"
vector 603  Net802154MultiGateway.host[33].wrappedHost.trafficgen  sentDummyPk:vector(packetBytes)  ETV
attr interpolationmode  none
attr source  sentDummyPk
attr title  "dummy packets sent, vector(packetBytes)"
vector 621  Net802154MultiGateway.host[34].wrappedHost.trafficgen  sentDummyPk:vector(packetBytes)  ETV
attr interpolationmode  none
attr source  sentDummyPk
attr title  "dummy packets sent, vector(packetBytes)"
vector 639  Net802154MultiGateway.host[35].wrappedHost.trafficgen  sentDummyPk:vector(packetBytes)  ETV
attr interpolationmode  none
attr source  sentDummyPk
attr title  "dummy packets sent, vector(packetBytes)"
vector 657  Net802154MultiGateway.host[36].wrappedHost.trafficgen  sentDummyPk:vector(packetBytes)  ETV
attr interpolationmode  none
attr source  sentDummyPk
attr title  "dummy packets sent, vector(packetBytes)"
vector 675  Net802154MultiGateway.host[37].wrappedHost.trafficgen  sentDummyPk:vector(packetBytes)  ETV
attr interpolationmode  none
attr source  sentDummyPk
attr title  "dummy packets sent, vector(packetBytes)"
vector 693  Net802154MultiGateway.host[38].wrappedHost.trafficgen  sentDummyPk:vector(packetBytes)  ETV
attr interpolationmode  none
attr source  sentDummyPk
attr title  "dummy packets sent, vector(packetBytes)"
vector 711  Net802154MultiGateway.host[39].wrappedHost.trafficgen  sentDummyPk:vector(packetBytes)  ETV
attr interpolationmode  none
attr source  sentDummyPk
attr title  "dummy packets sent, vector(packetBytes)"
vector 729  Net802154MultiGateway.host[40].wrappedHost.trafficgen  sentDummyPk:vector(packetBytes)  ETV
attr interpolationmode  none
attr source  sentDummyPk
attr title  "dummy packets sent, vector(packetBytes)"
vector 747  Net802154MultiGateway.host[41].wrappedHost.trafficgen  sentDummyPk:vector(packetBytes)  ETV
attr interpolationmode  none
attr source  sentDummyPk
attr title  "dummy packets sent, vector(packetBytes)"
vector 765  Net802154MultiGateway.host[42].wrappedHost.trafficgen  sentDummyPk:vector(packetBytes)  ETV
attr interpolationmode  none
attr source  sentDummyPk
attr title  "dummy packets sent, vector(packetBytes)"
vector 783  Net802154MultiGateway.host[43].wrappedHost.trafficgen  sentDummyPk:vector(packetBytes)  ETV
attr interpolationmode  none
attr source  sentDummyPk
attr title  "dummy packets sent, vector(packetBytes)"
vector 801  Net802154MultiGateway.host[44].wrappedHost.trafficgen  sentDummyPk:vector(packetBytes)  ETV
attr interpolationmode  none
attr source  sentDummyPk
attr title  "dummy packets sent, vector(packetBytes)"
vector 819  Net802154MultiGateway.host[45].wrappedHost.trafficgen  sentDummyPk:vector(packetBytes)  ETV
attr interpolationmode  none
attr source  sentDummyPk
attr title  "dummy packets sent, vector(packetBytes)"
vector 837  Net802154MultiGateway.host[46].wrappedHost.trafficgen  sentDummyPk:vector(packetBytes)  ETV
attr interpolationmode  none
attr source  sentDummyPk
attr title  "dummy packets sent, vector(packetBytes)"
vector 855  Net802154MultiGateway.host[47].wrappedHost.trafficgen  sentDummyPk:vector(packetBytes)  ETV
attr interpolationmode  none
attr source  sentDummyPk
attr title  "dummy packets sent, vector(packetBytes)"
vector 873  Net802154MultiGateway.host[48].wrappedHost.trafficgen  sentDummyPk:vector(packetBytes)  ETV
attr interpolationmode  none
attr source  sentDummyPk
attr title  "dummy packets sent, vector(packetBytes)"
vector 891  Net802154MultiGateway.host[49].wrappedHost.trafficgen  sentDummyPk:vector(packetBytes)  ETV
attr interpolationmode  none
attr source  sentDummyPk
attr title  "dummy packets sent, vector(packetBytes)"
vector 909  Net802154MultiGateway.host[50].wrappedHost.trafficgen  sentDummyPk:vector(packetBytes)  ETV
attr interpolationmode  none
attr source  sentDummyPk
attr title  "dummy packets sent, vector(packetBytes)"
vector 927  Net802154MultiGateway.host[51].wrappedHost.trafficgen  sentDummyPk:vector(packetBytes)  ETV
attr interpolationmode  none
attr source  sentDummyPk
attr title  "dummy packets sent, vector(packetBytes)"
vector 945  Net802154MultiGateway.host[52].wrappedHost.trafficgen  sentDummyPk:vector(packetBytes)  ETV
attr interpolationmode  none
attr source  sentDummyPk
attr title  "dummy packets sent, vector(packetBytes)"
vector 963  Net802154MultiGateway.host[53].wrappedHost.trafficgen  sentDummyPk:vector(packetBytes)  ETV
attr interpolationmode  none
attr source  sentDummyPk
attr title  "dummy packets sent, vector(packetBytes)"
vector 981  Net802154MultiGateway.host[54].wrappedHost.trafficgen  sentDummyPk:vector(packetBytes)  ETV
attr interpolationmode  none
attr source  sentDummyPk
attr title  "dummy packets sent, vector(packetBytes)"
vector 999  Net802154MultiGateway.host[55].wrappedHost.trafficgen  sentDummyPk:vector(packetBytes)  ETV
attr interpolationmode  none
attr source  sentDummyPk
attr title  "dummy packets sent, vector(packetBytes)"
vector 1017  Net802154MultiGateway.host[56].wrappedHost.trafficgen  sentDummyPk:vector(packetBytes)  ETV
attr interpolationmode  none
attr source  sentDummyPk
attr title  "dummy packets sent, vector(packetBytes)"
vector 1035  Net802154MultiGateway.host[57].wrappedHost.trafficgen  sentDummyPk:vector(packetBytes)  ETV
attr interpolationmode  none
attr source  sentDummyPk
attr title  "dummy packets sent, vector(packetBytes)"
vector 1053  Net802154MultiGateway.host[58].wrappedHost.trafficgen  sentDummyPk:vector(packetBytes)  ETV
attr interpolationmode  none
attr source  sentDummyPk
attr title  "dummy packets sent, vector(packetBytes)"
vector 1071  Net802154MultiGateway.host[59].wrappedHost.trafficgen  sentDummyPk:vector(packetBytes)  ETV
attr interpolationmode  none
attr source  sentDummyPk
attr title  "dummy packets sent, vector(packetBytes)"
vector 1089  Net802154MultiGateway.host[60].wrappedHost.trafficgen  sentDummyPk:vector(packetBytes)  ETV
attr interpolationmode  none
attr source  sentDummyPk
attr title  "dummy packets sent, vector(packetBytes)"
vector 1107  Net802154MultiGateway.host[61].wrappedHost.trafficgen  sentDummyPk:vector(packetBytes)  ETV
attr interpolationmode  none
attr source  sentDummyPk
attr title  "dummy packets sent, vector(packetBytes)"
vector 916  Net802154MultiGateway.host[50].wrappedHost.wlan[0].mac  corruptedFrameReceived:vector(packetBytes)  ETV
attr interpolationmode  none
attr source  corruptedFrameReceived
attr title  "corrupted frame received, vector(packetBytes)"
vector 16  Net802154MultiGateway.host[0].wrappedHost.wlan[0].mac  corruptedFrameReceived:vector(packetBytes)  ETV
attr interpolationmode  none
attr source  corruptedFrameReceived
attr title  "corrupted frame received, vector(packetBytes)"
vector 538  Net802154MultiGateway.host[29].wrappedHost.wlan[0].mac  corruptedFrameReceived:vector(packetBytes)  ETV
attr interpolationmode  none
attr source  corruptedFrameReceived
attr title  "corrupted frame received, vector(packetBytes)"
vector 898  Net802154MultiGateway.host[49].wrappedHost.wlan[0].mac  corruptedFrameReceived:vector(packetBytes)  ETV
attr interpolationmode  none
attr source  corruptedFrameReceived
attr title  "corrupted frame received, vector(packetBytes)"
vector 718  Net802154MultiGateway.host[39].wrappedHost.wlan[0].mac  corruptedFrameReceived:vector(packetBytes)  ETV
attr interpolationmode  none
attr source  corruptedFrameReceived
attr title  "corrupted frame received, vector(packetBytes)"
vector 448  Net802154MultiGateway.host[24].wrappedHost.wlan[0].mac  corruptedFrameReceived:vector(packetBytes)  ETV
attr interpolationmode  none
attr source  corruptedFrameReceived
attr title  "corrupted frame received, vector(packetBytes)"
vector 1094  Net802154MultiGateway.host[60].wrappedHost.wlan[0].mac  unicastDataSentDown:vector(packetBytes)  ETV
attr interpolationmode  none
attr source  unicastDataSentDown
attr title  "unicast packet sent down of type DATA, vector(packetBytes)"
vector 770  Net802154MultiGateway.host[42].wrappedHost.wlan[0].mac  unicastDataSentDown:vector(packetBytes)  ETV
attr interpolationmode  none
attr source  unicastDataSentDown
attr title  "unicast packet sent down of type DATA, vector(packetBytes)"
vector 662  Net802154MultiGateway.host[36].wrappedHost.wlan[0].mac  unicastDataSentDown:vector(packetBytes)  ETV
attr interpolationmode  none
attr source  unicastDataSentDown
attr title  "unicast packet sent down of type DATA, vector(packetBytes)"
vector 932  Net802154MultiGateway.host[51].wrappedHost.wlan[0].mac  unicastDataSentDown:vector(packetBytes)  ETV
attr interpolationmode  none
attr source  unicastDataSentDown
attr title  "unicast packet sent down of type DATA, vector(packetBytes)"
vector 1040  Net802154MultiGateway.host[57].wrappedHost.wlan[0].mac  unicastDataSentDown:vector(packetBytes)  ETV
attr interpolationmode  none
attr source  unicastDataSentDown
attr title  "unicast packet sent down of type DATA, vector(packetBytes)"
vector 284  Net802154MultiGateway.host[15].wrappedHost.wlan[0].mac  unicastDataSentDown:vector(packetBytes)  ETV
attr interpolationmode  none
attr source  unicastDataSentDown
attr title  "unicast packet sent down of type DATA, vector(packetBytes)"
vector 590  Net802154MultiGateway.host[32].wrappedHost.wlan[0].mac  unicastDataSentDown:vector(packetBytes)  ETV
attr interpolationmode  none
attr source  unicastDataSentDown
attr title  "unicast packet sent down of type DATA, vector(packetBytes)"
vector 824  Net802154MultiGateway.host[45].wrappedHost.wlan[0].mac  unicastDataSentDown:vector(packetBytes)  ETV
attr interpolationmode  none
attr source  unicastDataSentDown
attr title  "unicast packet sent down of type DATA, vector(packetBytes)"
vector 356  Net802154MultiGateway.host[19].wrappedHost.wlan[0].mac  unicastDataSentDown:vector(packetBytes)  ETV
attr interpolationmode  none
attr source  unicastDataSentDown
attr title  "unicast packet sent down of type DATA, vector(packetBytes)"
vector 716  Net802154MultiGateway.host[39].wrappedHost.wlan[0].mac  unicastDataSentDown:vector(packetBytes)  ETV
attr interpolationmode  none
attr source  unicastDataSentDown
attr title  "unicast packet sent down of type DATA, vector(packetBytes)"
vector 878  Net802154MultiGateway.host[48].wrappedHost.wlan[0].mac  unicastDataSentDown:vector(packetBytes)  ETV
attr interpolationmode  none
attr source  unicastDataSentDown
attr title  "unicast packet sent down of type DATA, vector(packetBytes)"
vector 860  Net802154MultiGateway.host[47].wrappedHost.wlan[0].mac  unicastDataSentDown:vector(packetBytes)  ETV
attr interpolationmode  none
attr source  unicastDataSentDown
attr title  "unicast packet sent down of type DATA, vector(packetBytes)"
vector 1004  Net802154MultiGateway.host[55].wrappedHost.wlan[0].mac  unicastDataSentDown:vector(packetBytes)  ETV
attr interpolationmode  none
attr source  unicastDataSentDown
attr title  "unicast packet sent down of type DATA, vector(packetBytes)"
vector 842  Net802154MultiGateway.host[46].wrappedHost.wlan[0].mac  unicastDataSentDown:vector(packetBytes)  ETV
attr interpolationmode  none
attr source  unicastDataSentDown
attr title  "unicast packet sent down of type DATA, vector(packetBytes)"
vector 734  Net802154MultiGateway.host[40].wrappedHost.wlan[0].mac  unicastDataSentDown:vector(packetBytes)  ETV
attr interpolationmode  none
attr source  unicastDataSentDown
attr title  "unicast packet sent down of type DATA, vector(packetBytes)"
vector 896  Net802154MultiGateway.host[49].wrappedHost.wlan[0].mac  unicastDataSentDown:vector(packetBytes)  ETV
attr interpolationmode  none
attr source  unicastDataSentDown
attr title  "unicast packet sent down of type DATA, vector(packetBytes)"
vector 536  Net802154MultiGateway.host[29].wrappedHost.wlan[0].mac  unicastDataSentDown:vector(packetBytes)  ETV
attr interpolationmode  none
attr source  unicastDataSentDown
attr title  "unicast packet sent down of type DATA, vector(packetBytes)"
vector 914  Net802154MultiGateway.host[50].wrappedHost.wlan[0].mac  unicastDataSentDown:vector(packetBytes)  ETV
attr interpolationmode  none
attr source  unicastDataSentDown
attr title  "unicast packet sent down of type DATA, vector(packetBytes)"
vector 104  Net802154MultiGateway.host[5].wrappedHost.wlan[0].mac  unicastDataSentDown:vector(packetBytes)  ETV
attr interpolationmode  none
attr source  unicastDataSentDown
attr title  "unicast packet sent down of type DATA, vector(packetBytes)"
vector 411  Net802154MultiGateway.host[22].wrappedHost.wlan[0].mac  broadDataSentDown:vector(packetBytes)  ETV
attr interpolationmode  none
attr source  broadcastDataSentDown
attr title  "broadcast packet sent down of type DATA, vector(packetBytes)"
vector 1042  Net802154MultiGateway.host[57].wrappedHost.wlan[0].mac  corruptedFrameReceived:vector(packetBytes)  ETV
attr interpolationmode  none
attr source  corruptedFrameReceived
attr title  "corrupted frame received, vector(packetBytes)"
vector 592  Net802154MultiGateway.host[32].wrappedHost.wlan[0].mac  corruptedFrameReceived:vector(packetBytes)  ETV
attr interpolationmode  none
attr source  corruptedFrameReceived
attr title  "corrupted frame received, vector(packetBytes)"
vector 806  Net802154MultiGateway.host[44].wrappedHost.wlan[0].mac  unicastDataSentDown:vector(packetBytes)  ETV
attr interpolationmode  none
attr source  unicastDataSentDown
attr title  "unicast packet sent down of type DATA, vector(packetBytes)"
vector 698  Net802154MultiGateway.host[38].wrappedHost.wlan[0].mac  unicastDataSentDown:vector(packetBytes)  ETV
attr interpolationmode  none
attr source  unicastDataSentDown
attr title  "unicast packet sent down of type DATA, vector(packetBytes)"
vector 482  Net802154MultiGateway.host[26].wrappedHost.wlan[0].mac  unicastDataSentDown:vector(packetBytes)  ETV
attr interpolationmode  none
attr source  unicastDataSentDown
attr title  "unicast packet sent down of type DATA, vector(packetBytes)"
vector 428  Net802154MultiGateway.host[23].wrappedHost.wlan[0].mac  unicastDataSentDown:vector(packetBytes)  ETV
attr interpolationmode  none
attr source  unicastDataSentDown
attr title  "unicast packet sent down of type DATA, vector(packetBytes)"
vector 338  Net802154MultiGateway.host[18].wrappedHost.wlan[0].mac  unicastDataSentDown:vector(packetBytes)  ETV
attr interpolationmode  none
attr source  unicastDataSentDown
attr title  "unicast packet sent down of type DATA, vector(packetBytes)"
vector 302  Net802154MultiGateway.host[16].wrappedHost.wlan[0].mac  unicastDataSentDown:vector(packetBytes)  ETV
attr interpolationmode  none
attr source  unicastDataSentDown
attr title  "unicast packet sent down of type DATA, vector(packetBytes)"
vector 644  Net802154MultiGateway.host[35].wrappedHost.wlan[0].mac  unicastDataSentDown:vector(packetBytes)  ETV
attr interpolationmode  none
attr source  unicastDataSentDown
attr title  "unicast packet sent down of type DATA, vector(packetBytes)"
vector 608  Net802154MultiGateway.host[33].wrappedHost.wlan[0].mac  unicastDataSentDown:vector(packetBytes)  ETV
attr interpolationmode  none
attr source  unicastDataSentDown
attr title  "unicast packet sent down of type DATA, vector(packetBytes)"
vector 122  Net802154MultiGateway.host[6].wrappedHost.wlan[0].mac  unicastDataSentDown:vector(packetBytes)  ETV
attr interpolationmode  none
attr source  unicastDataSentDown
attr title  "unicast packet sent down of type DATA, vector(packetBytes)"
vector 879  Net802154MultiGateway.host[48].wrappedHost.wlan[0].mac  broadDataSentDown:vector(packetBytes)  ETV
attr interpolationmode  none
attr source  broadcastDataSentDown
attr title  "broadcast packet sent down of type DATA, vector(packetBytes)"
vector 1005  Net802154MultiGateway.host[55].wrappedHost.wlan[0].mac  broadDataSentDown:vector(packetBytes)  ETV
attr interpolationmode  none
attr source  broadcastDataSentDown
attr title  "broadcast packet sent down of type DATA, vector(packetBytes)"
vector 699  Net802154MultiGateway.host[38].wrappedHost.wlan[0].mac  broadDataSentDown:vector(packetBytes)  ETV
attr interpolationmode  none
attr source  broadcastDataSentDown
attr title  "broadcast packet sent down of type DATA, vector(packetBytes)"
vector 50  Net802154MultiGateway.host[2].wrappedHost.wlan[0].mac  unicastDataSentDown:vector(packetBytes)  ETV
attr interpolationmode  none
attr source  unicastDataSentDown
attr title  "unicast packet sent down of type DATA, vector(packetBytes)"
vector 680  Net802154MultiGateway.host[37].wrappedHost.wlan[0].mac  unicastDataSentDown:vector(packetBytes)  ETV
attr interpolationmode  none
attr source  unicastDataSentDown
attr title  "unicast packet sent down of type DATA, vector(packetBytes)"
vector 519  Net802154MultiGateway.host[28].wrappedHost.wlan[0].mac  broadDataSentDown:vector(packetBytes)  ETV
attr interpolationmode  none
attr source  broadcastDataSentDown
attr title  "broadcast packet sent down of type DATA, vector(packetBytes)"
vector 717  Net802154MultiGateway.host[39].wrappedHost.wlan[0].mac  broadDataSentDown:vector(packetBytes)  ETV
attr interpolationmode  none
attr source  broadcastDataSentDown
attr title  "broadcast packet sent down of type DATA, vector(packetBytes)"
vector 320  Net802154MultiGateway.host[17].wrappedHost.wlan[0].mac  unicastDataSentDown:vector(packetBytes)  ETV
attr interpolationmode  none
attr source  unicastDataSentDown
attr title  "unicast packet sent down of type DATA, vector(packetBytes)"
vector 788  Net802154MultiGateway.host[43].wrappedHost.wlan[0].mac  unicastDataSentDown:vector(packetBytes)  ETV
attr interpolationmode  none
attr source  unicastDataSentDown
attr title  "unicast packet sent down of type DATA, vector(packetBytes)"
vector 266  Net802154MultiGateway.host[14].wrappedHost.wlan[0].mac  unicastDataSentDown:vector(packetBytes)  ETV
attr interpolationmode  none
attr source  unicastDataSentDown
attr title  "unicast packet sent down of type DATA, vector(packetBytes)"
vector 374  Net802154MultiGateway.host[20].wrappedHost.wlan[0].mac  unicastDataSentDown:vector(packetBytes)  ETV
attr interpolationmode  none
attr source  unicastDataSentDown
attr title  "unicast packet sent down of type DATA, vector(packetBytes)"
vector 230  Net802154MultiGateway.host[12].wrappedHost.wlan[0].mac  unicastDataSentDown:vector(packetBytes)  ETV
attr interpolationmode  none
attr source  unicastDataSentDown
attr title  "unicast packet sent down of type DATA, vector(packetBytes)"
vector 446  Net802154MultiGateway.host[24].wrappedHost.wlan[0].mac  unicastDataSentDown:vector(packetBytes)  ETV
attr interpolationmode  none
attr source  unicastDataSentDown
attr title  "unicast packet sent down of type DATA, vector(packetBytes)"
vector 753  Net802154MultiGateway.host[41].wrappedHost.wlan[0].mac  broadDataSentDown:vector(packetBytes)  ETV
attr interpolationmode  none
attr source  broadcastDataSentDown
attr title  "broadcast packet sent down of type DATA, vector(packetBytes)"
vector 176  Net802154MultiGateway.host[9].wrappedHost.wlan[0].mac  unicastDataSentDown:vector(packetBytes)  ETV
attr interpolationmode  none
attr source  unicastDataSentDown
attr title  "unicast packet sent down of type DATA, vector(packetBytes)"
vector 86  Net802154MultiGateway.host[4].wrappedHost.wlan[0].mac  unicastDataSentDown:vector(packetBytes)  ETV
attr interpolationmode  none
attr source  unicastDataSentDown
attr title  "unicast packet sent down of type DATA, vector(packetBytes)"
vector 968  Net802154MultiGateway.host[53].wrappedHost.wlan[0].mac  unicastDataSentDown:vector(packetBytes)  ETV
attr interpolationmode  none
attr source  unicastDataSentDown
attr title  "unicast packet sent down of type DATA, vector(packetBytes)"
vector 825  Net802154MultiGateway.host[45].wrappedHost.wlan[0].mac  broadDataSentDown:vector(packetBytes)  ETV
attr interpolationmode  none
attr source  broadcastDataSentDown
attr title  "broadcast packet sent down of type DATA, vector(packetBytes)"
vector 32  Net802154MultiGateway.host[1].wrappedHost.wlan[0].mac  unicastDataSentDown:vector(packetBytes)  ETV
attr interpolationmode  none
attr source  unicastDataSentDown
attr title  "unicast packet sent down of type DATA, vector(packetBytes)"
vector 194  Net802154MultiGateway.host[10].wrappedHost.wlan[0].mac  unicastDataSentDown:vector(packetBytes)  ETV
attr interpolationmode  none
attr source  unicastDataSentDown
attr title  "unicast packet sent down of type DATA, vector(packetBytes)"
vector 140  Net802154MultiGateway.host[7].wrappedHost.wlan[0].mac  unicastDataSentDown:vector(packetBytes)  ETV
attr interpolationmode  none
attr source  unicastDataSentDown
attr title  "unicast packet sent down of type DATA, vector(packetBytes)"
vector 68  Net802154MultiGateway.host[3].wrappedHost.wlan[0].mac  unicastDataSentDown:vector(packetBytes)  ETV
attr interpolationmode  none
attr source  unicastDataSentDown
attr title  "unicast packet sent down of type DATA, vector(packetBytes)"
vector 464  Net802154MultiGateway.host[25].wrappedHost.wlan[0].mac  unicastDataSentDown:vector(packetBytes)  ETV
attr interpolationmode  none
attr source  unicastDataSentDown
attr title  "unicast packet sent down of type DATA, vector(packetBytes)"
vector 1095  Net802154MultiGateway.host[60].wrappedHost.wlan[0].mac  broadDataSentDown:vector(packetBytes)  ETV
attr interpolationmode  none
attr source  broadcastDataSentDown
attr title  "broadcast packet sent down of type DATA, vector(packetBytes)"
vector 645  Net802154MultiGateway.host[35].wrappedHost.wlan[0].mac  broadDataSentDown:vector(packetBytes)  ETV
attr interpolationmode  none
attr source  broadcastDataSentDown
attr title  "broadcast packet sent down of type DATA, vector(packetBytes)"
vector 554  Net802154MultiGateway.host[30].wrappedHost.wlan[0].mac  unicastDataSentDown:vector(packetBytes)  ETV
attr interpolationmode  none
attr source  unicastDataSentDown
attr title  "unicast packet sent down of type DATA, vector(packetBytes)"
vector 986  Net802154MultiGateway.host[54].wrappedHost.wlan[0].mac  unicastDataSentDown:vector(packetBytes)  ETV
attr interpolationmode  none
attr source  unicastDataSentDown
attr title  "unicast packet sent down of type DATA, vector(packetBytes)"
vector 950  Net802154MultiGateway.host[52].wrappedHost.wlan[0].mac  unicastDataSentDown:vector(packetBytes)  ETV
attr interpolationmode  none
attr source  unicastDataSentDown
attr title  "unicast packet sent down of type DATA, vector(packetBytes)"
vector 1059  Net802154MultiGateway.host[58].wrappedHost.wlan[0].mac  broadDataSentDown:vector(packetBytes)  ETV
attr interpolationmode  none
attr source  broadcastDataSentDown
attr title  "broadcast packet sent down of type DATA, vector(packetBytes)"
vector 1058  Net802154MultiGateway.host[58].wrappedHost.wlan[0].mac  unicastDataSentDown:vector(packetBytes)  ETV
attr interpolationmode  none
attr source  unicastDataSentDown
attr title  "unicast packet sent down of type DATA, vector(packetBytes)"
vector 1112  Net802154MultiGateway.host[61].wrappedHost.wlan[0].mac  unicastDataSentDown:vector(packetBytes)  ETV
attr interpolationmode  none
attr source  unicastDataSentDown
attr title  "unicast packet sent down of type DATA, vector(packetBytes)"
vector 518  Net802154MultiGateway.host[28].wrappedHost.wlan[0].mac  unicastDataSentDown:vector(packetBytes)  ETV
attr interpolationmode  none
attr source  unicastDataSentDown
attr title  "unicast packet sent down of type DATA, vector(packetBytes)"
vector 681  Net802154MultiGateway.host[37].wrappedHost.wlan[0].mac  broadDataSentDown:vector(packetBytes)  ETV
attr interpolationmode  none
attr source  broadcastDataSentDown
attr title  "broadcast packet sent down of type DATA, vector(packetBytes)"
vector 158  Net802154MultiGateway.host[8].wrappedHost.wlan[0].mac  unicastDataSentDown:vector(packetBytes)  ETV
attr interpolationmode  none
attr source  unicastDataSentDown
attr title  "unicast packet sent down of type DATA, vector(packetBytes)"
vector 591  Net802154MultiGateway.host[32].wrappedHost.wlan[0].mac  broadDataSentDown:vector(packetBytes)  ETV
attr interpolationmode  none
attr source  broadcastDataSentDown
attr title  "broadcast packet sent down of type DATA, vector(packetBytes)"
vector 626  Net802154MultiGateway.host[34].wrappedHost.wlan[0].mac  unicastDataSentDown:vector(packetBytes)  ETV
attr interpolationmode  none
attr source  unicastDataSentDown
attr title  "unicast packet sent down of type DATA, vector(packetBytes)"
vector 248  Net802154MultiGateway.host[13].wrappedHost.wlan[0].mac  unicastDataSentDown:vector(packetBytes)  ETV
attr interpolationmode  none
attr source  unicastDataSentDown
attr title  "unicast packet sent down of type DATA, vector(packetBytes)"
vector 1022  Net802154MultiGateway.host[56].wrappedHost.wlan[0].mac  unicastDataSentDown:vector(packetBytes)  ETV
attr interpolationmode  none
attr source  unicastDataSentDown
attr title  "unicast packet sent down of type DATA, vector(packetBytes)"
vector 987  Net802154MultiGateway.host[54].wrappedHost.wlan[0].mac  broadDataSentDown:vector(packetBytes)  ETV
attr interpolationmode  none
attr source  broadcastDataSentDown
attr title  "broadcast packet sent down of type DATA, vector(packetBytes)"
vector 392  Net802154MultiGateway.host[21].wrappedHost.wlan[0].mac  unicastDataSentDown:vector(packetBytes)  ETV
attr interpolationmode  none
attr source  unicastDataSentDown
attr title  "unicast packet sent down of type DATA, vector(packetBytes)"
vector 212  Net802154MultiGateway.host[11].wrappedHost.wlan[0].mac  unicastDataSentDown:vector(packetBytes)  ETV
attr interpolationmode  none
attr source  unicastDataSentDown
attr title  "unicast packet sent down of type DATA, vector(packetBytes)"
vector 500  Net802154MultiGateway.host[27].wrappedHost.wlan[0].mac  unicastDataSentDown:vector(packetBytes)  ETV
attr interpolationmode  none
attr source  unicastDataSentDown
attr title  "unicast packet sent down of type DATA, vector(packetBytes)"
vector 771  Net802154MultiGateway.host[42].wrappedHost.wlan[0].mac  broadDataSentDown:vector(packetBytes)  ETV
attr interpolationmode  none
attr source  broadcastDataSentDown
attr title  "broadcast packet sent down of type DATA, vector(packetBytes)"
vector 933  Net802154MultiGateway.host[51].wrappedHost.wlan[0].mac  broadDataSentDown:vector(packetBytes)  ETV
attr interpolationmode  none
attr source  broadcastDataSentDown
attr title  "broadcast packet sent down of type DATA, vector(packetBytes)"
vector 573  Net802154MultiGateway.host[31].wrappedHost.wlan[0].mac  broadDataSentDown:vector(packetBytes)  ETV
attr interpolationmode  none
attr source  broadcastDataSentDown
attr title  "broadcast packet sent down of type DATA, vector(packetBytes)"
vector 285  Net802154MultiGateway.host[15].wrappedHost.wlan[0].mac  broadDataSentDown:vector(packetBytes)  ETV
attr interpolationmode  none
attr source  broadcastDataSentDown
attr title  "broadcast packet sent down of type DATA, vector(packetBytes)"
vector 410  Net802154MultiGateway.host[22].wrappedHost.wlan[0].mac  unicastDataSentDown:vector(packetBytes)  ETV
attr interpolationmode  none
attr source  unicastDataSentDown
attr title  "unicast packet sent down of type DATA, vector(packetBytes)"
vector 752  Net802154MultiGateway.host[41].wrappedHost.wlan[0].mac  unicastDataSentDown:vector(packetBytes)  ETV
attr interpolationmode  none
attr source  unicastDataSentDown
attr title  "unicast packet sent down of type DATA, vector(packetBytes)"
vector 555  Net802154MultiGateway.host[30].wrappedHost.wlan[0].mac  broadDataSentDown:vector(packetBytes)  ETV
attr interpolationmode  none
attr source  broadcastDataSentDown
attr title  "broadcast packet sent down of type DATA, vector(packetBytes)"
vector 663  Net802154MultiGateway.host[36].wrappedHost.wlan[0].mac  broadDataSentDown:vector(packetBytes)  ETV
attr interpolationmode  none
attr source  broadcastDataSentDown
attr title  "broadcast packet sent down of type DATA, vector(packetBytes)"
vector 572  Net802154MultiGateway.host[31].wrappedHost.wlan[0].mac  unicastDataSentDown:vector(packetBytes)  ETV
attr interpolationmode  none
attr source  unicastDataSentDown
attr title  "unicast packet sent down of type DATA, vector(packetBytes)"
vector 1076  Net802154MultiGateway.host[59].wrappedHost.wlan[0].mac  unicastDataSentDown:vector(packetBytes)  ETV
attr interpolationmode  none
attr source  unicastDataSentDown
attr title  "unicast packet sent down of type DATA, vector(packetBytes)"
vector 1113  Net802154MultiGateway.host[61].wrappedHost.wlan[0].mac  broadDataSentDown:vector(packetBytes)  ETV
attr interpolationmode  none
attr source  broadcastDataSentDown
attr title  "broadcast packet sent down of type DATA, vector(packetBytes)"
vector 1023  Net802154MultiGateway.host[56].wrappedHost.wlan[0].mac  broadDataSentDown:vector(packetBytes)  ETV
attr interpolationmode  none
attr source  broadcastDataSentDown
attr title  "broadcast packet sent down of type DATA, vector(packetBytes)"
vector 772  Net802154MultiGateway.host[42].wrappedHost.wlan[0].mac  corruptedFrameReceived:vector(packetBytes)  ETV
attr interpolationmode  none
attr source  corruptedFrameReceived
attr title  "corrupted frame received, vector(packetBytes)"
vector 790  Net802154MultiGateway.host[43].wrappedHost.wlan[0].mac  corruptedFrameReceived:vector(packetBytes)  ETV
attr interpolationmode  none
attr source  corruptedFrameReceived
attr title  "corrupted frame received, vector(packetBytes)"
vector 816  Net802154MultiGateway.host[45].wrappedHost.trafficgen  sentPk:vector(packetBytes)  ETV
attr interpolationmode  none
attr source  sentPk
attr title  "packets sent, vector(packetBytes)"
vector 820  Net802154MultiGateway.host[45].wrappedHost.trafficgen  PRR:vector  ETV
attr interpolationmode  none
attr source  count(sinkRcvdPk)/count(sentPk)
attr title  "PRR, vector"
vector 1032  Net802154MultiGateway.host[57].wrappedHost.trafficgen  sentPk:vector(packetBytes)  ETV
attr interpolationmode  none
attr source  sentPk
attr title  "packets sent, vector(packetBytes)"
vector 1036  Net802154MultiGateway.host[57].wrappedHost.trafficgen  PRR:vector  ETV
attr interpolationmode  none
attr source  count(sinkRcvdPk)/count(sentPk)
attr title  "PRR, vector"
vector 276  Net802154MultiGateway.host[15].wrappedHost.trafficgen  sentPk:vector(packetBytes)  ETV
attr interpolationmode  none
attr source  sentPk
attr title  "packets sent, vector(packetBytes)"
vector 280  Net802154MultiGateway.host[15].wrappedHost.trafficgen  PRR:vector  ETV
attr interpolationmode  none
attr source  count(sinkRcvdPk)/count(sentPk)
attr title  "PRR, vector"
vector 852  Net802154MultiGateway.host[47].wrappedHost.trafficgen  sentPk:vector(packetBytes)  ETV
attr interpolationmode  none
attr source  sentPk
attr title  "packets sent, vector(packetBytes)"
vector 856  Net802154MultiGateway.host[47].wrappedHost.trafficgen  PRR:vector  ETV
attr interpolationmode  none
attr source  count(sinkRcvdPk)/count(sentPk)
attr title  "PRR, vector"
vector 204  Net802154MultiGateway.host[11].wrappedHost.trafficgen  sentPk:vector(packetBytes)  ETV
attr interpolationmode  none
attr source  sentPk
attr title  "packets sent, vector(packetBytes)"
vector 208  Net802154MultiGateway.host[11].wrappedHost.trafficgen  PRR:vector  ETV
attr interpolationmode  none
attr source  count(sinkRcvdPk)/count(sentPk)
attr title  "PRR, vector"
vector 690  Net802154MultiGateway.host[38].wrappedHost.trafficgen  sentPk:vector(packetBytes)  ETV
attr interpolationmode  none
attr source  sentPk
attr title  "packets sent, vector(packetBytes)"
vector 694  Net802154MultiGateway.host[38].wrappedHost.trafficgen  PRR:vector  ETV
attr interpolationmode  none
attr source  count(sinkRcvdPk)/count(sentPk)
attr title  "PRR, vector"
vector 888  Net802154MultiGateway.host[49].wrappedHost.trafficgen  sentPk:vector(packetBytes)  ETV
attr interpolationmode  none
attr source  sentPk
attr title  "packets sent, vector(packetBytes)"
vector 892  Net802154MultiGateway.host[49].wrappedHost.trafficgen  PRR:vector  ETV
attr interpolationmode  none
attr source  count(sinkRcvdPk)/count(sentPk)
attr title  "PRR, vector"
vector 132  Net802154MultiGateway.host[7].wrappedHost.trafficgen  sentPk:vector(packetBytes)  ETV
attr interpolationmode  none
attr source  sentPk
attr title  "packets sent, vector(packetBytes)"
vector 136  Net802154MultiGateway.host[7].wrappedHost.trafficgen  PRR:vector  ETV
attr interpolationmode  none
attr source  count(sinkRcvdPk)/count(sentPk)
attr title  "PRR, vector"
vector 762  Net802154MultiGateway.host[42].wrappedHost.trafficgen  sentPk:vector(packetBytes)  ETV
attr interpolationmode  none
attr source  sentPk
attr title  "packets sent, vector(packetBytes)"
vector 766  Net802154MultiGateway.host[42].wrappedHost.trafficgen  PRR:vector  ETV
attr interpolationmode  none
attr source  count(sinkRcvdPk)/count(sentPk)
attr title  "PRR, vector"
vector 834  Net802154MultiGateway.host[46].wrappedHost.trafficgen  sentPk:vector(packetBytes)  ETV
attr interpolationmode  none
attr source  sentPk
attr title  "packets sent, vector(packetBytes)"
vector 838  Net802154MultiGateway.host[46].wrappedHost.trafficgen  PRR:vector  ETV
attr interpolationmode  none
attr source  count(sinkRcvdPk)/count(sentPk)
attr title  "PRR, vector"
vector 114  Net802154MultiGateway.host[6].wrappedHost.trafficgen  sentPk:vector(packetBytes)  ETV
attr interpolationmode  none
attr source  sentPk
attr title  "packets sent, vector(packetBytes)"
vector 118  Net802154MultiGateway.host[6].wrappedHost.trafficgen  PRR:vector  ETV
attr interpolationmode  none
attr source  count(sinkRcvdPk)/count(sentPk)
attr title  "PRR, vector"
vector 654  Net802154MultiGateway.host[36].wrappedHost.trafficgen  sentPk:vector(packetBytes)  ETV
attr interpolationmode  none
attr source  sentPk
attr title  "packets sent, vector(packetBytes)"
vector 658  Net802154MultiGateway.host[36].wrappedHost.trafficgen  PRR:vector  ETV
attr interpolationmode  none
attr source  count(sinkRcvdPk)/count(sentPk)
attr title  "PRR, vector"
vector 116  Net802154MultiGateway.host[6].wrappedHost.trafficgen  sinkRcvdPk:vector(packetBytes)  ETV
attr interpolationmode  none
attr source  sinkRcvdPk
[...]
590	10565638 11717 527376 10722189 30.05184 468.61824 457 120 120 54840 6580800
591	10577355 1155 598154 10764318 32.57336 470.421568 45 29 29 1305 37845
592	10578510 1121 544383 10604577 30.49049645242 463.643760347537 36 5 120 1158 67794
593	10579631 123082 74785 10818117 4.435456347537 472.720480333954 3901 5 120 133665 8858667
600	10702713 3187 5012437 9531334 221.778738470495 416.779171659319 100 76 76 7600 577600
602	10705900 3200 5030813 9558165 222.526352333564 418.005392333564 100 76 76 7600 577600
603	10709100 4069 519951 10813259 30 472.504564787846 129 76 76 9804 745104
604	10713169 7962 5012437 9558165 221.778738470495 418.005392333564 200 0.25 1 -nan -nan
608	10721131 17152 546917 10820101 30.55872 472.80384 670 120 120 80400 9648000
609	10738283 1185 384783 10786972 22.304496 471.391088 46 29 29 1334 38686
610	10739468 9807 206969 10782373 12.177216534138 471.187184559244 309 5 120 10117 428953
611	10749275 142348 168564 10831808 9.964736357641 473.314752437934 4496 5 120 154708 10173034
618	10891623 3189 4998971 10024783 221.216792064633 438.509753942851 100 76 76 7600 577600
620	10894812 3202 5030464 10048945 222.510992333564 439.517072333564 100 76 76 7600 577600
621	10898014 3268 519952 10804280 30 472.136364848355 104 76 76 7904 600704
622	10901282 8122 4998971 10048945 221.216792064633 439.517072333564 200 0.5 1 -nan -nan
626	10909404 10813 600078 10811044 32.64 472.42752 422 120 120 50640 6076800
627	10920217 1148 393969 10636067 22.796912 465.006256 45 29 29 1305 37845
628	10921365 15779 252047 10821011 14.746720538651 472.843360538651 497 5 120 14998 502126
629	10937144 141204 55491 10829412 3.330496347537 473.212000347537 4465 5 120 135460 7023014
636	11078348 3190 4994304 9969785 221.018094252471 436.145830563352 100 76 76 7600 577600
638	11081538 3201 5015476 10025405 221.881232333564 438.534032333564 100 76 76 7600 577600
639	11084739 3247 519953 10715615 30 468.342475375856 103 76 76 7828 594928
640	11087986 8037 4994304 10025405 221.018094252471 438.534032333564 200 0.33333333333333 1 -nan -nan
644	11096023 11532 546908 10796674 30.55872 471.81312 450 120 120 54000 6480000
645	11107555 1156 576414 10761580 31.636512 470.298752 45 29 29 1305 37845
646	11108711 7686 284073 10766788 16.600896611071 470.519952611071 242 5 120 8798 508502
647	11116397 139752 112146 10823863 6.652224347537 472.966240437934 4411 5 120 147497 8963397
654	11256149 3191 4980185 9438398 220.396676508946 412.709247144828 100 76 76 7600 577600
656	11259340 3200 5006227 9450482 221.512592333564 413.236112333564 100 76 76 7600 577600
657	11262540 3623 519954 10827401 30 473.147064774202 115 76 76 8740 664240
658	11266163 8000 4980185 9450482 220.396676508946 413.236112333564 200 0.33333333333333 1 -nan -nan
662	11274163 16936 527358 10822256 30.05184 472.91136 660 120 120 79200 9504000
663	11291099 1125 656634 10607568 34.813552 463.75872 44 29 29 1276 37004
664	11292224 14334 342124 10818157 19.919936572016 472.720480572016 452 5 120 13397 448493
665	11306558 143671 55453 10832254 3.329216347537 473.334880347537 4542 5 120 167330 11958470
672	11450229 3191 5080824 9361155 224.484829711697 409.402705148543 100 76 76 7600 577600
674	11453420 3200 5120603 9398152 226.197392333564 410.985872333564 100 76 76 7600 577600
675	11456620 3907 519955 10829804 30 473.236057575562 124 76 76 9424 716224
676	11460527 8269 5080824 9398152 224.484829711697 410.985872333564 200 0.33333333333333 1 -nan -nan
680	11468796 5708 554059 10830734 30.78912 473.28 223 120 120 26760 3211200
681	11474504 1156 595178 10781404 32.465248 471.134912 45 29 29 1305 37845
682	11475660 12297 274281 10755251 16.041760521831 470.034560521831 386 5 120 13025 577793
683	11487957 77280 55449 10832246 3.329216333564 473.334880333564 2447 5 120 63897 2509185
690	11565237 3198 4977127 9249138 220.273257221755 404.541434004967 100 76 76 7600 577600
692	11568435 3200 5018424 9276329 222.004112333564 405.702032333564 100 76 76 7600 577600
693	11571635 4572 519956 10719978 30 468.532400099798 145 76 76 11020 837520
694	11576207 8113 4977127 9276329 220.273257221755 405.702032333564 200 0.25 1 -nan -nan
698	11584320 6271 546502 10741477 30.55104 469.47072 245 120 120 29400 3528000
699	11590591 1159 550931 10830328 30.65808 473.260576 45 29 29 1305 37845
700	11591750 20141 230515 10818320 13.525568611071 472.731584611071 632 5 120 24673 1595223
701	11611891 65797 55456 10832261 3.329216441768 473.334880441768 2122 5 120 56592 2330060
708	11677688 3192 5049934 9028109 223.258246801627 394.935517153877 100 76 76 7600 577600
710	11680880 3200 5086096 9050325 224.722832333564 395.879312333564 100 76 76 7600 577600
711	11684080 4078 519957 10754555 30 470.012959487843 129 76 76 9804 745104
712	11688158 8202 5049934 9050325 223.258246801627 395.879312333564 200 0.25 1 -nan -nan
716	11696360 5855 527384 10669472 30.05184 466.39872 228 120 120 27360 3283200
717	11702215 1130 556936 10584279 30.905872 462.795648 44 29 29 1276 37004
718	11703345 59 521825 522000 30.010256334453 30.010800742391 2 5 34 39 1181
719	11703404 74605 93291 10830340 5.542656377756 473.261696334453 2356 5 120 70797 3610865
726	11778009 3194 5083483 9683381 224.594559728115 423.572888480705 100 76 76 7600 577600
728	11781203 3200 5120953 9714492 226.212752333564 425.009552333564 100 76 76 7600 577600
729	11784403 3695 519958 10828867 30 473.191511239585 117 76 76 8892 675792
730	11788098 8091 5083483 9714492 224.594559728115 425.009552333564 200 0.5 1 -nan -nan
734	11796189 5537 528044 10822228 30.05952 472.91136 216 120 120 25920 3110400
735	11801726 1181 424210 10790570 24.489808 471.543232 46 29 29 1334 38686
736	11802907 19168 93297 10823868 5.542656572016 472.966240572016 604 5 34 17464 538518
737	11822075 63395 149819 10822468 8.858496334453 472.915936679496 2007 5 120 56841 2706953
744	11885470 3194 5017648 10047167 221.97864904213 439.451790585669 100 76 76 7600 577600
746	11888664 3204 5033106 10089871 222.618512333564 441.245072333564 100 76 76 7600 577600
747	11891868 3535 519959 10806607 30 472.241300824664 112 76 76 8512 646912
748	11895403 8119 5017648 10089871 221.97864904213 441.245072333564 200 0.25 1 -nan -nan
752	11903522 5410 644100 10814186 34.36032 472.5504 211 120 120 25320 3038400
753	11908932 1161 564111 10772973 31.144192 470.785904 45 29 29 1305 37845
754	11910093 20236 299232 10691864 17.450080559244 467.332608559244 637 5 120 23525 1307419
755	11930329 74921 93264 10818317 5.541696334453 472.731584486069 2367 5 120 68371 3248961
762	12005250 3190 4977985 10013638 220.303823466665 438.028714536417 100 76 76 7600 577600
764	12008440 3201 4989541 10075560 220.806032333564 440.646032333564 100 76 76 7600 577600
765	12011641 3095 519960 10786843 30 471.385845096673 98 76 76 7448 566048
766	12014736 8069 4977985 10075560 220.303823466665 440.646032333564 200 0.5 1 -nan -nan
770	12022805 5095 527354 10787939 30.05184 471.4368 198 120 120 23760 2851200
771	12027900 1151 625724 10804003 33.681904 472.123232 45 29 29 1305 37845
772	12029051 31 1198948 1198948 57.646784334453 57.646784334453 1 32 32 32 1024
773	12029082 71470 187883 10809400 11.072256334453 472.351840411848 2265 5 120 60607 2248113
780	12100552 3198 5213397 10205606 230.173123528777 446.271515662103 100 76 76 7600 577600
782	12103750 3207 5221235 10233789 230.498192333564 447.481232333564 100 76 76 7600 577600
783	12106957 3961 519961 10816148 30 472.644690182703 125 76 76 9500 722000
784	12110918 8089 5213397 10233789 230.173123528777 447.481232333564 200 0.5 1 -nan -nan
788	12119007 5796 560365 10827617 31.03488 473.15712 225 120 120 27000 3240000
789	12124803 1155 360250 10587378 20.937248 462.919936 45 29 29 1305 37845
790	12125958 159 3503877 8461857 156.444160431439 370.374656765393 5 5 34 137 4385
791	12126117 66608 74830 10827907 4.436736334453 473.161696715282 2109 5 120 57535 2408039
798	12192725 3191 5045042 10105238 223.080976667201 441.945825047438 100 76 76 7600 577600
800	12195916 3205 5073694 10131818 224.215952333564 443.080592333564 100 76 76 7600 577600
801	12199121 4296 519962 10796459 30 471.808879190879 136 76 76 10336 785536
802	12203417 8177 5045042 10131818 223.080976667201 443.080592333564 200 0.33333333333333 1 -nan -nan
806	12211594 6062 546316 10807717 30.54336 472.29696 236 120 120 28320 3398400
807	12217656 1180 404257 10824633 23.380112 473.014304 46 29 29 1334 38686
808	12218836 14308 229258 10795300 13.460000534138 471.756160509706 449 5 120 17474 1024208
809	12233144 84067 55477 10818149 3.329856334453 472.720480509706 2662 5 120 70605 2768925
816	12317211 3184 4973262 8779800 220.089971609637 383.961105620927 100 76 76 7600 577600
818	12320395 3200 5056676 8796659 223.501712333564 384.689552333564 100 76 76 7600 577600
819	12323595 4200 519963 10792479 30 471.620982739246 133 76 76 10108 768208
820	12327795 8281 4973262 8796659 220.089971609637 384.689552333564 200 0.5 1 -nan -nan
824	12336076 5980 527378 10796328 30.05184 471.80544 233 120 120 27960 3355200
825	12342056 1151 572467 10758199 31.501424 470.154592 45 29 29 1305 37845
826	12343207 14228 244517 10815393 14.32016059794 472.59760059794 463 5 34 13240 398992
827	12357435 69549 74831 10824648 4.436736334453 473.015424334453 2216 5 120 57825 2099571
834	12426984 3191 4979036 9284895 220.343896297205 406.093784138031 100 76 76 7600 577600
836	12430175 3200 5033287 9334185 222.626192333564 408.282512333564 100 76 76 7600 577600
837	12433375 3986 519964 10793829 30 471.693274602937 126 76 76 9576 727776
838	12437361 8174 4979036 9334185 220.343896297205 408.282512333564 200 0.33333333333333 1 -nan -nan
842	12445535 5795 528042 10802050 30.05952 472.0512 226 120 120 27120 3254400
843	12451330 1145 419287 10528740 24.217952 460.3356 45 29 29 1305 37845
844	12452475 64 5075051 6874488 224.268032385565 301.726384334453 2 29 34 63 1997
845	12452539 61084 55478 10818141 3.329856334453 472.720480385565 1942 5 120 52671 2232265
852	12513623 3184 4975641 9832312 220.199976036158 430.31042530756 100 76 76 7600 577600
854	12516807 3200 5065856 9902061 223.870352333564 433.265552333564 100 76 76 7600 577600
855	12520007 4107 519965 10818712 30 472.757318920443 130 76 76 9880 750880
856	12524114 8169 4975641 9902061 220.199976036158 433.265552333564 200 0.2 1 -nan -nan
860	12532283 5899 527393 10827597 30.05184 473.15712 230 120 120 27600 3312000
861	12538182 1150 367098 10587561 21.321456 462.930368 45 29 29 1305 37845
862	12539332 22552 245844 10818159 14.387904584919 472.720480584919 710 5 120 24756 1305496
863	12561884 65152 112001 10827893 6.649664334453 473.161696686352 2064 5 120 52994 1931728
870	12627036 3191 5033988 9569797 222.653132679015 418.574729148137 100 76 76 7600 577600
872	12630227 3200 5065684 9603283 223.862672333564 420.102032333564 100 76 76 7600 577600
873	12633427 3478 519966 10819298 30 472.785884476073 110 76 76 8360 635360
874	12636905 8097 5033988 9603283 222.653132679015 420.102032333564 200 0.5 1 -nan -nan
878	12645002 5393 527389 10819366 30.05184 472.78848 210 120 120 25200 3024000
879	12650395 1125 549613 10593971 30.62872 463.201056 44 29 29 1276 37004
880	12651520 7953 381767 10819281 22.130368894151 472.781952546614 251 5 34 7649 243353
881	12659473 65508 111949 10819630 6.647296334453 472.793056670242 2089 5 120 52814 1760396
888	12724981 3187 4977235 9619611 220.277021665926 420.835992212276 100 76 76 7600 577600
890	12728168 3200 5009803 9648836 221.666192333564 422.068112333564 100 76 76 7600 577600
891	12731368 3720 519967 10821887 30 472.890903873898 118 76 76 8968 681568
892	12735088 8123 4977235 9648836 220.277021665926 422.068112333564 200 0.33333333333333 1 -nan -nan
896	12743211 5585 528046 10827598 30.05952 473.15712 218 120 120 26160 3139200
897	12748796 1172 433064 10781383 24.993424 471.1332 46 29 29 1334 38686
898	12749968 60 521779 6879466 30.00984036376 301.93472036376 2 32 34 66 2180
899	12750028 60185 168555 10827917 9.964736334453 473.16169672752 1927 5 120 49309 1746895
906	12810213 3184 5033918 9685197 222.650844617218 423.656929951698 100 76 76 7600 577600
908	12813397 3200 5073914 9768867 224.223632333564 427.474832333564 100 76 76 7600 577600
909	12816597 3117 519968 10794624 30 471.727168063531 99 76 76 7524 571824
910	12819714 8282 5033918 9768867 222.650844617218 427.474832333564 200 0.33333333333333 1 -nan -nan
914	12827996 5103 528350 10805204 30.0672 472.18176 199 120 120 23880 2865600
915	12833099 1177 371438 10795860 21.557392 471.7844 46 29 29 1334 38686
916	12834276 60 520451 526288 30.003728421456 30.040784421456 2 32 34 66 2180
917	12834336 59234 149855 10832424 8.859456421456 473.343520421456 1895 5 120 48081 1634149
924	12893570 3189 5021946 10455230 222.142413685295 457.088873744474 100 76 76 7600 577600
926	12896759 3202 5144363 10507854 227.172752333564 459.423632333564 100 76 76 7600 577600
927	12899961 3485 519969 10830483 30 473.265826399157 111 76 76 8436 641136
928	12903446 8217 5021946 10507854 222.142413685295 459.423632333564 200 0.33333333333333 1 -nan -nan
932	12911663 5396 527359 10830688 30.05184 473.28 211 120 120 25320 3038400
933	12917059 1150 632030 10773381 33.942608 470.81144 45 29 29 1305 37845
934	12918209 7736 291651 10796091 17.023520334453 471.792112546614 244 5 120 7188 238946
935	12925945 70068 74762 10832412 4.434816334453 473.343520335121 2224 5 120 58092 2175660
942	12996013 3191 5172100 9604820 228.34182924476 420.176699722334 100 76 76 7600 577600
944	12999204 3200 5212037 9630694 230.129552333564 421.315472333564 100 76 76 7600 577600
945	13002404 4188 519970 10754557 30 470.014264184305 133 76 76 10108 768208
946	13006592 8162 5172100 9630694 228.34182924476 421.315472333564 200 0.5 1 -nan -nan
950	13014754 6033 582506 10759167 31.90272 470.208 236 120 120 28320 3398400
951	13020787 1175 372986 10801904 21.637648 472.045232 46 29 29 1334 38686
952	13021962 12388 387193 10806733 22.431840584919 472.243136584919 391 5 120 11712 474322
953	13034350 57969 149859 10832430 8.859456463368 473.343520463368 1839 5 120 44641 1543705
960	13092319 3193 5022977 9063769 222.185238107178 396.467961576631 100 76 76 7600 577600
962	13095512 3200 5040771 9092527 222.894992333564 397.753232333564 100 76 76 7600 577600
963	13098712 4106 519971 10810396 30 472.397244332828 130 76 76 9880 750880
964	13102818 8067 5022977 9092527 222.185238107178 397.753232333564 200 0.28571428571429 1 -nan -nan
968	13110885 5899 570356 10816506 31.40352 472.6656 230 120 120 27600 3312000
969	13116784 1183 391278 10819093 22.656944 472.77784 46 29 29 1334 38686
970	13117967 95 7508163 7516836 328.966976334453 329.330976737048 3 5 34 71 2205
971	13118062 56344 74763 10829405 4.434816334453 473.212000334453 1790 5 120 57885 3638215
978	13174406 3190 5027282 9396712 222.371232021123 410.914600204237 100 76 76 7600 577600
980	13177596 3200 5054222 9444689 223.394192333564 412.998032333564 100 76 76 7600 577600
981	13180796 4460 519972 10797382 30 471.837898156911 142 76 76 10792 820192
982	13185256 8196 5027282 9444689 222.371232021123 412.998032333564 200 0.5 1 -nan -nan
986	13193452 6137 582147 10802056 31.89504 472.0512 240 120 120 28800 3456000
987	13199589 1151 616456 10770379 33.359696 470.666528 45 29 29 1305 37845
988	13200740 7841 291716 10613697 17.02512059794 464.02217659794 254 5 120 6827 221447
989	13208581 65806 187858 10819104 11.071296334453 472.778960334453 2099 5 120 53226 1846850
996	13274387 3187 5030942 10008101 222.532057077401 437.775444202073 100 76 76 7600 577600
998	13277574 3203 5145152 10072334 227.203472333564 440.523152333564 100 76 76 7600 577600
999	13280777 4230 519973 10680066 30 466.846769173229 134 76 76 10184 773984
1000	13285007 8267 5030942 10072334 222.532057077401 440.523152333564 200 0.33333333333333 1 -nan -nan
1004	13293274 6205 528036 10687051 30.05952 467.136 233 120 120 27960 3355200
1005	13299479 1163 550923 10567539 30.657824 462.073856 44 29 29 1276 37004
1006	13300642 13294 477102 10735388 27.526240534138 469.189744509706 406 5 120 14128 666460
1007	13313936 68256 74796 10812750 4.435456534138 472.489216333954 2101 5 120 54992 2421424
1014	13382192 3288 5000546 9160392 221.283729605966 400.701885141149 100 76 76 7600 577600
1016	13385480 3300 5068504 9186170 223.985552333564 401.815952333564 100 76 76 7600 577600
1017	13388780 3691 519974 10828387 30 473.174570039161 113 76 76 8588 652688
1018	13392471 8365 5000546 9186170 221.283729605966 401.815952333564 200 0.25 1 -nan -nan
1022	13400836 5634 611452 10776484 33.12384 470.94528 211 120 120 25320 3038400
1023	13406470 1146 805207 10633734 40.56024 464.890384 43 29 29 1247 36163
1025	13407616 80295 74788 10818125 4.435456357641 472.720480334453 2465 5 120 63304 2026572
1032	13487911 3290 4974648 9781838 220.153321168299 428.066072855543 100 76 76 7600 577600
1034	13491201 3300 5003190 9814892 221.389712333564 429.549488955634 100 76 76 7600 577600
1035	13494501 4219 519975 10788649 30 471.449161459091 130 76 76 9880 750880
1036	13498720 8437 4974648 9814892 220.153321168299 429.549488955634 200 0.33333333333333 1 -nan -nan
1040	13507157 6115 527361 10807713 30.05184 472.29696 230 120 120 27600 3312000
1041	13513272 1192 419567 10617134 24.231568 464.183344 45 29 29 1305 37845
1042	13514464 31 543887 543887 30.487232370476 30.487232370476 1 34 34 34 1156
1043	13514495 66786 74792 10812342 4.435456370476 472.474720411848 2058 5 120 52476 1913380
1050	13581281 3285 4981859 9793287 220.455445563639 428.58645038972 100 76 76 7600 577600
1052	13584566 3300 5027350 9809486 222.372752333564 429.310352333564 100 76 76 7600 577600
1053	13587866 3900 519976 10824504 30 473.005288850455 120 76 76 9120 693120
1054	13591766 8369 4981859 9809486 220.455445563639 429.310352333564 200 0.4 1 -nan -nan
1058	13600135 5811 588179 10787980 32.1408 471.4368 218 120 120 26160 3139200
1059	13605946 1195 584729 10782351 32.014992 471.186064 45 29 29 1305 37845
1060	13607141 18936 351798 10797860 20.465760559244 471.860320559244 580 5 120 18721 784727
1061	13626077 81274 55500 10829423 3.330496486069 473.212000486069 2496 5 120 65116 2361306
1068	13707351 3284 5075758 9210060 224.290529609696 402.856450262427 100 76 76 7600 577600
1070	13710635 3300 5088506 9246181 224.830352333564 404.388752333564 100 76 76 7600 577600
1071	13713935 4761 519977 10776307 30 470.940071273148 146 76 76 11096 843296
1072	13718696 8375 5075758 9246181 224.290529609696 404.388752333564 200 0.44444444444444 1 -nan -nan
1076	13727071 6522 712475 10787979 36.81024 471.4368 245 120 120 29400 3528000
1077	13733593 1221 430546 10781822 24.855072 471.159376 46 29 29 1334 38686
1078	13734814 22178 112158 10797862 6.652224572016 471.860320572016 677 5 120 21073 843587
1079	13756992 61679 55488 10829407 3.330496339748 473.212000339748 1897 5 120 47795 1820343
1086	13818671 3285 5031133 9443871 222.540330228718 412.962674221412 100 76 76 7600 577600
1088	13821956 3300 5074354 9473749 224.238992333564 414.219152333564 100 76 76 7600 577600
1089	13825256 4588 519978 10816624 30 472.665727009022 141 76 76 10716 814416
1090	13829844 8311 5031133 9473749 222.540330228718 414.219152333564 200 0.2 1 -nan -nan
1094	13838155 6409 527350 10822563 30.05184 472.91904 241 120 120 28920 3470400
1095	13844564 1204 575569 10772568 31.606752 470.765824 45 29 29 1305 37845
1097	13845768 74843 55496 10829417 3.330496402643 473.212000402643 2297 5 120 60355 2273247
1104	13920611 3287 4995906 9581762 221.08528482319 419.117902473736 100 76 76 7600 577600
1106	13923898 3300 5036705 9589798 222.764432333564 419.495312333564 100 76 76 7600 577600
1107	13927198 3686 519979 10817944 30 472.712746672164 113 76 76 8588 652688
1108	13930884 8219 4995906 9589798 221.08528482319 419.495312333564 200 0.2 1 -nan -nan
1112	13939103 5627 591333 10819369 32.27904 472.78848 211 120 120 25320 3038400
1113	13944730 1180 797178 10766765 40.221792 470.518832 44 29 29 1276 37004
1114	13945910 16396 55502 10829427 3.330496611071 473.212000611071 500 5 120 16069 720185
1115	13962306 65914 55457 10832262 3.329216441768 473.334880441768 2058 5 120 52670 1832116
