version 2
run CSMA-5-20160823-12:00:19-14487
attr beaconInterval 10s
attr configname CSMA
attr datetime 20160823-12:00:19
attr experiment CSMA
attr inifile simulations/omnetpp.ini
attr iterationvars "$packetLength=76B, $sendInt=1.1, $beaconInterval=10s, $0=10s/2, $1=3 * 10s"
attr iterationvars2 "$packetLength=76B, $sendInt=1.1, $beaconInterval=10s, $0=10s/2, $1=3 * 10s, $repetition=0"
attr measurement "$packetLength=76B, $sendInt=1.1, $beaconInterval=10s, $0=10s/2, $1=3 * 10s"
attr network multi_gateway.Net802154MultiGateway
attr packetLength 76B
attr processid 14487
attr repetition 0
attr replication #0
attr resultdir ../results
attr runnumber 5
attr seedset 0
attr sendInt 1.1
param **.configurator.addStaticRoutes false
param **.dumpRoutes false
param **.dumpTopology false
param **.host[*].**.gpsr.beaconInterval "${beaconInterval = 10s}"
param **.host[*].**.gpsr.maxJitter ${$beaconInterval/2}
param **.host[*].**.gpsr.neighborValidityInterval "${3 * $beaconInterval}"
param **.host[*].**.gpsr.positionByteLength "2 B"
param **.host[*].**.gpsr.routingStrategy "\"StraightestPath\""
param **.host[*].**.trafficgen.continueSendingDummyPackets true
param **.host[*].**.trafficgen.coolDownDuration 15s
param **.host[*].**.trafficgen.destAddresses "\"host[0].wrappedHost(modulepath)\""
param **.host[*].**.trafficgen.packetLength "${packetLength = 76B}"
param **.host[*].**.trafficgen.sendInterval "exponential(${sendInt=0.1..2.5 step 0.2}s)"
param **.host[*].**.trafficgen.warmUpDuration 160s
param **.host[*].**.wlan[*].mac.queueLength 30
param **.host[*].**.wlan[*].macType "\"Ieee802154NarrowbandMac\""
param **.host[*].**.wlan[*].radio.receiver.minInterferencePower "-100 dBm"
param **.host[*].hostType "\"SimpleHost\""
param **.host[*].mobilityType "\"StaticConcentricWrappingMobility\""
param **.host[0].**.trafficgen.numPackets 0
param **.host[1..].**.trafficgen.numPackets 100
param **.numHosts 62
param **.radioMedium.rangeFilter "\"interferenceRange\""
param **.routingTable.addressType "\"modulepath\""
param **.routingTableType "\"GenericRoutingTable\""

vector 9  Net802154MultiGateway.host[0].wrappedHost.trafficgen  sentDummyPk:vector(packetBytes)  ETV
attr interpolationmode  none
attr source  sentDummyPk
attr title  "dummy packets sent, vector(packetBytes)"
vector 23  Net802154MultiGateway.host[1].wrappedHost.trafficgen  sentDummyPk:vector(packetBytes)  ETV
attr interpolationmode  none
attr source  sentDummyPk
attr title  "dummy packets sent, vector(packetBytes)"
vector 37  Net802154MultiGateway.host[2].wrappedHost.trafficgen  sentDummyPk:vector(packetBytes)  ETV
attr interpolationmode  none
attr source  sentDummyPk
attr title  "dummy packets sent, vector(packetBytes)"
vector 51  Net802154MultiGateway.host[3].wrappedHost.trafficgen  sentDummyPk:vector(packetBytes)  ETV
attr interpolationmode  none
attr source  sentDummyPk
attr title  "dummy packets sent, vector(packetBytes)"
vector 65  Net802154MultiGateway.host[4].wrappedHost.trafficgen  sentDummyPk:vector(packetBytes)  ETV
attr interpolationmode  none
attr source  sentDummyPk
attr title  "dummy packets sent, vector(packetBytes)"
vector 79  Net802154MultiGateway.host[5].wrappedHost.trafficgen  sentDummyPk:vector(packetBytes)  ETV
attr interpolationmode  none
attr source  sentDummyPk
attr title  "dummy packets sent, vector(packetBytes)"
vector 93  Net802154MultiGateway.host[6].wrappedHost.trafficgen  sentDummyPk:vector(packetBytes)  ETV
attr interpolationmode  none
attr source  sentDummyPk
attr title  "dummy packets sent, vector(packetBytes)"
vector 107  Net802154MultiGateway.host[7].wrappedHost.trafficgen  sentDummyPk:vector(packetBytes)  ETV
attr interpolationmode  none
attr source  sentDummyPk
attr title  "dummy packets sent, vector(packetBytes)"
vector 121  Net802154MultiGateway.host[8].wrappedHost.trafficgen  sentDummyPk:vector(packetBytes)  ETV
attr interpolationmode  none
attr source  sentDummyPk
attr title  "dummy packets sent, vector(packetBytes)"
vector 135  Net802154MultiGateway.host[9].wrappedHost.trafficgen  sentDummyPk:vector(packetBytes)  ETV
attr interpolationmode  none
attr source  sentDummyPk
attr title  "dummy packets sent, vector(packetBytes)"
vector 149  Net802154MultiGateway.host[10].wrappedHost.trafficgen  sentDummyPk:vector(packetBytes)  ETV
attr interpolationmode  none
attr source  sentDummyPk
attr title  "dummy packets sent, vector(packetBytes)"
vector 163  Net802154MultiGateway.host[11].wrappedHost.trafficgen  sentDummyPk:vector(packetBytes)  ETV
attr interpolationmode  none
attr source  sentDummyPk
attr title  "dummy packets sent, vector(packetBytes)"
vector 177  Net802154MultiGateway.host[12].wrappedHost.trafficgen  sentDummyPk:vector(packetBytes)  ETV
attr interpolationmode  none
attr source  sentDummyPk
attr title  "dummy packets sent, vector(packetBytes)"
vector 191  Net802154MultiGateway.host[13].wrappedHost.trafficgen  sentDummyPk:vector(packetBytes)  ETV
attr interpolationmode  none
attr source  sentDummyPk
attr title  "dummy packets sent, vector(packetBytes)"
vector 205  Net802154MultiGateway.host[14].wrappedHost.trafficgen  sentDummyPk:vector(packetBytes)  ETV
attr interpolationmode  none
attr source  sentDummyPk
attr title  "dummy packets sent, vector(packetBytes)"
vector 219  Net802154MultiGateway.host[15].wrappedHost.trafficgen  sentDummyPk:vector(packetBytes)  ETV
attr interpolationmode  none
attr source  sentDummyPk
attr title  "dummy packets sent, vector(packetBytes)"
vector 233  Net802154MultiGateway.host[16].wrappedHost.trafficgen  sentDummyPk:vector(packetBytes)  ETV
attr interpolationmode  none
attr source  sentDummyPk
attr title  "dummy packets sent, vector(packetBytes)"
vector 247  Net802154MultiGateway.host[17].wrappedHost.trafficgen  sentDummyPk:vector(packetBytes)  ETV
attr interpolationmode  none
attr source  sentDummyPk
attr title  "dummy packets sent, vector(packetBytes)"
vector 261  Net802154MultiGateway.host[18].wrappedHost.trafficgen  sentDummyPk:vector(packetBytes)  ETV
attr interpolationmode  none
attr source  sentDummyPk
attr title  "dummy packets sent, vector(packetBytes)"
vector 275  Net802154MultiGateway.host[19].wrappedHost.trafficgen  sentDummyPk:vector(packetBytes)  ETV
attr interpolationmode  none
attr source  sentDummyPk
attr title  "dummy packets sent, vector(packetBytes)"
vector 289  Net802154MultiGateway.host[20].wrappedHost.trafficgen  sentDummyPk:vector(packetBytes)  ETV
attr interpolationmode  none
attr source  sentDummyPk
attr title  "dummy packets sent, vector(packetBytes)"
vector 303  Net802154MultiGateway.host[21].wrappedHost.trafficgen  sentDummyPk:vector(packetBytes)  ETV
attr interpolationmode  none
attr source  sentDummyPk
attr title  "dummy packets sent, vector(packetBytes)"
vector 317  Net802154MultiGateway.host[22].wrappedHost.trafficgen  sentDummyPk:vector(packetBytes)  ETV
attr interpolationmode  none
attr source  sentDummyPk
attr title  "dummy packets sent, vector(packetBytes)"
vector 331  Net802154MultiGateway.host[23].wrappedHost.trafficgen  sentDummyPk:vector(packetBytes)  ETV
attr interpolationmode  none
attr source  sentDummyPk
attr title  "dummy packets sent, vector(packetBytes)"
vector 345  Net802154MultiGateway.host[24].wrappedHost.trafficgen  sentDummyPk:vector(packetBytes)  ETV
attr interpolationmode  none
attr source  sentDummyPk
attr title  "dummy packets sent, vector(packetBytes)"
vector 359  Net802154MultiGateway.host[25].wrappedHost.trafficgen  sentDummyPk:vector(packetBytes)  ETV
attr interpolationmode  none
attr source  sentDummyPk
attr title  "dummy packets sent, vector(packetBytes)"
vector 373  Net802154MultiGateway.host[26].wrappedHost.trafficgen  sentDummyPk:vector(packetBytes)  ETV
attr interpolationmode  none
attr source  sentDummyPk
attr title  "dummy packets sent, vector(packetBytes)"
vector 387  Net802154MultiGateway.host[27].wrappedHost.trafficgen  sentDummyPk:vector(packetBytes)  ETV
attr interpolationmode  none
attr source  sentDummyPk
attr title  "dummy packets sent, vector(packetBytes)"
vector 401  Net802154MultiGateway.host[28].wrappedHost.trafficgen  sentDummyPk:vector(packetBytes)  ETV
attr interpolationmode  none
attr source  sentDummyPk
attr title  "dummy packets sent, vector(packetBytes)"
vector 415  Net802154MultiGateway.host[29].wrappedHost.trafficgen  sentDummyPk:vector(packetBytes)  ETV
attr interpolationmode  none
attr source  sentDummyPk
attr title  "dummy packets sent, vector(packetBytes)"
vector 429  Net802154MultiGateway.host[30].wrappedHost.trafficgen  sentDummyPk:vector(packetBytes)  ETV
attr interpolationmode  none
attr source  sentDummyPk
attr title  "dummy packets sent, vector(packetBytes)"
vector 443  Net802154MultiGateway.host[31].wrappedHost.trafficgen  sentDummyPk:vector(packetBytes)  ETV
attr interpolationmode  none
attr source  sentDummyPk
attr title  "dummy packets sent, vector(packetBytes)"
vector 457  Net802154MultiGateway.host[32].wrappedHost.trafficgen  sentDummyPk:vector(packetBytes)  ETV
attr interpolationmode  none
attr source  sentDummyPk
attr title  "dummy packets sent, vector(packetBytes)"
vector 471  Net802154MultiGateway.host[33].wrappedHost.trafficgen  sentDummyPk:vector(packetBytes)  ETV
attr interpolationmode  none
attr source  sentDummyPk
attr title  "dummy packets sent, vector(packetBytes)"
vector 485  Net802154MultiGateway.host[34].wrappedHost.trafficgen  sentDummyPk:vector(packetBytes)  ETV
attr interpolationmode  none
attr source  sentDummyPk
attr title  "dummy packets sent, vector(packetBytes)"
vector 499  Net802154MultiGateway.host[35].wrappedHost.trafficgen  sentDummyPk:vector(packetBytes)  ETV
attr interpolationmode  none
attr source  sentDummyPk
attr title  "dummy packets sent, vector(packetBytes)"
vector 513  Net802154MultiGateway.host[36].wrappedHost.trafficgen  sentDummyPk:vector(packetBytes)  ETV
attr interpolationmode  none
attr source  sentDummyPk
attr title  "dummy packets sent, vector(packetBytes)"
vector 527  Net802154MultiGateway.host[37].wrappedHost.trafficgen  sentDummyPk:vector(packetBytes)  ETV
attr interpolationmode  none
attr source  sentDummyPk
attr title  "dummy packets sent, vector(packetBytes)"
vector 541  Net802154MultiGateway.host[38].wrappedHost.trafficgen  sentDummyPk:vector(packetBytes)  ETV
attr interpolationmode  none
attr source  sentDummyPk
attr title  "dummy packets sent, vector(packetBytes)"
vector 555  Net802154MultiGateway.host[39].wrappedHost.trafficgen  sentDummyPk:vector(packetBytes)  ETV
attr interpolationmode  none
attr source  sentDummyPk
attr title  "dummy packets sent, vector(packetBytes)"
vector 569  Net802154MultiGateway.host[40].wrappedHost.trafficgen  sentDummyPk:vector(packetBytes)  ETV
attr interpolationmode  none
attr source  sentDummyPk
attr title  "dummy packets sent, vector(packetBytes)"
vector 583  Net802154MultiGateway.host[41].wrappedHost.trafficgen  sentDummyPk:vector(packetBytes)  ETV
attr interpolationmode  none
attr source  sentDummyPk
attr title  "dummy packets sent, vector(packetBytes)"
vector 597  Net802154MultiGateway.host[42].wrappedHost.trafficgen  sentDummyPk:vector(packetBytes)  ETV
attr interpolationmode  none
attr source  sentDummyPk
attr title  "dummy packets sent, vector(packetBytes)"
vector 611  Net802154MultiGateway.host[43].wrappedHost.trafficgen  sentDummyPk:vector(packetBytes)  ETV
attr interpolationmode  none
attr source  sentDummyPk
attr title  "dummy packets sent, vector(packetBytes)"
vector 625  Net802154MultiGateway.host[44].wrappedHost.trafficgen  sentDummyPk:vector(packetBytes)  ETV
attr interpolationmode  none
attr source  sentDummyPk
attr title  "dummy packets sent, vector(packetBytes)"
vector 639  Net802154MultiGateway.host[45].wrappedHost.trafficgen  sentDummyPk:vector(packetBytes)  ETV
attr interpolationmode  none
attr source  sentDummyPk
attr title  "dummy packets sent, vector(packetBytes)"
vector 653  Net802154MultiGateway.host[46].wrappedHost.trafficgen  sentDummyPk:vector(packetBytes)  ETV
attr interpolationmode  none
attr source  sentDummyPk
attr title  "dummy packets sent, vector(packetBytes)"
vector 667  Net802154MultiGateway.host[47].wrappedHost.trafficgen  sentDummyPk:vector(packetBytes)  ETV
attr interpolationmode  none
attr source  sentDummyPk
attr title  "dummy packets sent, vector(packetBytes)"
vector 681  Net802154MultiGateway.host[48].wrappedHost.trafficgen  sentDummyPk:vector(packetBytes)  ETV
attr interpolationmode  none
attr source  sentDummyPk
attr title  "dummy packets sent, vector(packetBytes)"
vector 695  Net802154MultiGateway.host[49].wrappedHost.trafficgen  sentDummyPk:vector(packetBytes)  ETV
attr interpolationmode  none
attr source  sentDummyPk
attr title  "dummy packets sent, vector(packetBytes)"
vector 709  Net802154MultiGateway.host[50].wrappedHost.trafficgen  sentDummyPk:vector(packetBytes)  ETV
attr interpolationmode  none
attr source  sentDummyPk
attr title  "dummy packets sent, vector(packetBytes)"
vector 723  Net802154MultiGateway.host[51].wrappedHost.trafficgen  sentDummyPk:vector(packetBytes)  ETV
attr interpolationmode  none
attr source  sentDummyPk
attr title  "dummy packets sent, vector(packetBytes)"
vector 737  Net802154MultiGateway.host[52].wrappedHost.trafficgen  sentDummyPk:vector(packetBytes)  ETV
attr interpolationmode  none
attr source  sentDummyPk
attr title  "dummy packets sent, vector(packetBytes)"
vector 751  Net802154MultiGateway.host[53].wrappedHost.trafficgen  sentDummyPk:vector(packetBytes)  ETV
attr interpolationmode  none
attr source  sentDummyPk
attr title  "dummy packets sent, vector(packetBytes)"
vector 765  Net802154MultiGateway.host[54].wrappedHost.trafficgen  sentDummyPk:vector(packetBytes)  ETV
attr interpolationmode  none
attr source  sentDummyPk
attr title  "dummy packets sent, vector(packetBytes)"
vector 779  Net802154MultiGateway.host[55].wrappedHost.trafficgen  sentDummyPk:vector(packetBytes)  ETV
attr interpolationmode  none
attr source  sentDummyPk
attr title  "dummy packets sent, vector(packetBytes)"
vector 793  Net802154MultiGateway.host[56].wrappedHost.trafficgen  sentDummyPk:vector(packetBytes)  ETV
attr interpolationmode  none
attr source  sentDummyPk
attr title  "dummy packets sent, vector(packetBytes)"
vector 807  Net802154MultiGateway.host[57].wrappedHost.trafficgen  sentDummyPk:vector(packetBytes)  ETV
attr interpolationmode  none
attr source  sentDummyPk
attr title  "dummy packets sent, vector(packetBytes)"
vector 821  Net802154MultiGateway.host[58].wrappedHost.trafficgen  sentDummyPk:vector(packetBytes)  ETV
attr interpolationmode  none
attr source  sentDummyPk
attr title  "dummy packets sent, vector(packetBytes)"
vector 835  Net802154MultiGateway.host[59].wrappedHost.trafficgen  sentDummyPk:vector(packetBytes)  ETV
attr interpolationmode  none
attr source  sentDummyPk
attr title  "dummy packets sent, vector(packetBytes)"
vector 849  Net802154MultiGateway.host[60].wrappedHost.trafficgen  sentDummyPk:vector(packetBytes)  ETV
attr interpolationmode  none
attr source  sentDummyPk
attr title  "dummy packets sent, vector(packetBytes)"
vector 863  Net802154MultiGateway.host[61].wrappedHost.trafficgen  sentDummyPk:vector(packetBytes)  ETV
attr interpolationmode  none
attr source  sentDummyPk
attr title  "dummy packets sent, vector(packetBytes)"
vector 202  Net802154MultiGateway.host[14].wrappedHost.trafficgen  sentPk:vector(packetBytes)  ETV
attr interpolationmode  none
attr source  sentPk
attr title  "packets sent, vector(packetBytes)"
vector 206  Net802154MultiGateway.host[14].wrappedHost.trafficgen  PRR:vector  ETV
attr interpolationmode  none
attr source  count(sinkRcvdPk)/count(sentPk)
attr title  "PRR, vector"
vector 204  Net802154MultiGateway.host[14].wrappedHost.trafficgen  sinkRcvdPk:vector(packetBytes)  ETV
attr interpolationmode  none
attr source  sinkRcvdPk
attr title  "own packets received by sink, vector(packetBytes)"
vector 5  Net802154MultiGateway.host[0].wrappedHost.trafficgen  rcvdPk:vector(packetBytes)  ETV
attr interpolationmode  none
attr source  rcvdPk
attr title  "packets received, vector(packetBytes)"
vector 7  Net802154MultiGateway.host[0].wrappedHost.trafficgen  endToEndDelay:vector  ETV
attr interpolationmode  none
attr source  messageAge(rcvdPk)
attr title  "end-to-end delay, vector"
attr unit  s
vector 62  Net802154MultiGateway.host[4].wrappedHost.trafficgen  sentPk:vector(packetBytes)  ETV
attr interpolationmode  none
attr source  sentPk
attr title  "packets sent, vector(packetBytes)"
vector 66  Net802154MultiGateway.host[4].wrappedHost.trafficgen  PRR:vector  ETV
attr interpolationmode  none
attr source  count(sinkRcvdPk)/count(sentPk)
attr title  "PRR, vector"
vector 64  Net802154MultiGateway.host[4].wrappedHost.trafficgen  sinkRcvdPk:vector(packetBytes)  ETV
attr interpolationmode  none
attr source  sinkRcvdPk
attr title  "own packets received by sink, vector(packetBytes)"
vector 552  Net802154MultiGateway.host[39].wrappedHost.trafficgen  sentPk:vector(packetBytes)  ETV
attr interpolationmode  none
attr source  sentPk
attr title  "packets sent, vector(packetBytes)"
vector 556  Net802154MultiGateway.host[39].wrappedHost.trafficgen  PRR:vector  ETV
attr interpolationmode  none
attr source  count(sinkRcvdPk)/count(sentPk)
attr title  "PRR, vector"
vector 580  Net802154MultiGateway.host[41].wrappedHost.trafficgen  sentPk:vector(packetBytes)  ETV
attr interpolationmode  none
attr source  sentPk
attr title  "packets sent, vector(packetBytes)"
vector 584  Net802154MultiGateway.host[41].wrappedHost.trafficgen  PRR:vector  ETV
attr interpolationmode  none
attr source  count(sinkRcvdPk)/count(sentPk)
attr title  "PRR, vector"
vector 554  Net802154MultiGateway.host[39].wrappedHost.trafficgen  sinkRcvdPk:vector(packetBytes)  ETV
attr interpolationmode  none
attr source  sinkRcvdPk
attr title  "own packets received by sink, vector(packetBytes)"
vector 582  Net802154MultiGateway.host[41].wrappedHost.trafficgen  sinkRcvdPk:vector(packetBytes)  ETV
attr interpolationmode  none
attr source  sinkRcvdPk
attr title  "own packets received by sink, vector(packetBytes)"
vector 188  Net802154MultiGateway.host[13].wrappedHost.trafficgen  sentPk:vector(packetBytes)  ETV
attr interpolationmode  none
attr source  sentPk
attr title  "packets sent, vector(packetBytes)"
vector 192  Net802154MultiGateway.host[13].wrappedHost.trafficgen  PRR:vector  ETV
attr interpolationmode  none
attr source  count(sinkRcvdPk)/count(sentPk)
attr title  "PRR, vector"
vector 190  Net802154MultiGateway.host[13].wrappedHost.trafficgen  sinkRcvdPk:vector(packetBytes)  ETV
attr interpolationmode  none
attr source  sinkRcvdPk
attr title  "own packets received by sink, vector(packetBytes)"
vector 734  Net802154MultiGateway.host[52].wrappedHost.trafficgen  sentPk:vector(packetBytes)  ETV
attr interpolationmode  none
attr source  sentPk
attr title  "packets sent, vector(packetBytes)"
vector 738  Net802154MultiGateway.host[52].wrappedHost.trafficgen  PRR:vector  ETV
attr interpolationmode  none
attr source  count(sinkRcvdPk)/count(sentPk)
attr title  "PRR, vector"
vector 622  Net802154MultiGateway.host[44].wrappedHost.trafficgen  sentPk:vector(packetBytes)  ETV
attr interpolationmode  none
attr source  sentPk
attr title  "packets sent, vector(packetBytes)"
vector 626  Net802154MultiGateway.host[44].wrappedHost.trafficgen  PRR:vector  ETV
attr interpolationmode  none
attr source  count(sinkRcvdPk)/count(sentPk)
attr title  "PRR, vector"
vector 342  Net802154MultiGateway.host[24].wrappedHost.trafficgen  sentPk:vector(packetBytes)  ETV
attr interpolationmode  none
attr source  sentPk
attr title  "packets sent, vector(packetBytes)"
vector 346  Net802154MultiGateway.host[24].wrappedHost.trafficgen  PRR:vector  ETV
attr interpolationmode  none
attr source  count(sinkRcvdPk)/count(sentPk)
attr title  "PRR, vector"
vector 594  Net802154MultiGateway.host[42].wrappedHost.trafficgen  sentPk:vector(packetBytes)  ETV
attr interpolationmode  none
attr source  sentPk
attr title  "packets sent, vector(packetBytes)"
vector 598  Net802154MultiGateway.host[42].wrappedHost.trafficgen  PRR:vector  ETV
attr interpolationmode  none
attr source  count(sinkRcvdPk)/count(sentPk)
attr title  "PRR, vector"
vector 384  Net802154MultiGateway.host[27].wrappedHost.trafficgen  sentPk:vector(packetBytes)  ETV
attr interpolationmode  none
attr source  sentPk
attr title  "packets sent, vector(packetBytes)"
vector 388  Net802154MultiGateway.host[27].wrappedHost.trafficgen  PRR:vector  ETV
attr interpolationmode  none
attr source  count(sinkRcvdPk)/count(sentPk)
attr title  "PRR, vector"
vector 736  Net802154MultiGateway.host[52].wrappedHost.trafficgen  sinkRcvdPk:vector(packetBytes)  ETV
attr interpolationmode  none
attr source  sinkRcvdPk
attr title  "own packets received by sink, vector(packetBytes)"
vector 386  Net802154MultiGateway.host[27].wrappedHost.trafficgen  sinkRcvdPk:vector(packetBytes)  ETV
attr interpolationmode  none
attr source  sinkRcvdPk
attr title  "own packets received by sink, vector(packetBytes)"
vector 344  Net802154MultiGateway.host[24].wrappedHost.trafficgen  sinkRcvdPk:vector(packetBytes)  ETV
attr interpolationmode  none
attr source  sinkRcvdPk
attr title  "own packets received by sink, vector(packetBytes)"
vector 624  Net802154MultiGateway.host[44].wrappedHost.trafficgen  sinkRcvdPk:vector(packetBytes)  ETV
attr interpolationmode  none
attr source  sinkRcvdPk
attr title  "own packets received by sink, vector(packetBytes)"
vector 230  Net802154MultiGateway.host[16].wrappedHost.trafficgen  sentPk:vector(packetBytes)  ETV
attr interpolationmode  none
attr source  sentPk
attr title  "packets sent, vector(packetBytes)"
vector 234  Net802154MultiGateway.host[16].wrappedHost.trafficgen  PRR:vector  ETV
attr interpolationmode  none
attr source  count(sinkRcvdPk)/count(sentPk)
attr title  "PRR, vector"
vector 596  Net802154MultiGateway.host[42].wrappedHost.trafficgen  sinkRcvdPk:vector(packetBytes)  ETV
attr interpolationmode  none
attr source  sinkRcvdPk
attr title  "own packets received by sink, vector(packetBytes)"
vector 232  Net802154MultiGateway.host[16].wrappedHost.trafficgen  sinkRcvdPk:vector(packetBytes)  ETV
attr interpolationmode  none
attr source  sinkRcvdPk
attr title  "own packets received by sink, vector(packetBytes)"
vector 174  Net802154MultiGateway.host[12].wrappedHost.trafficgen  sentPk:vector(packetBytes)  ETV
attr interpolationmode  none
attr source  sentPk
attr title  "packets sent, vector(packetBytes)"
vector 178  Net802154MultiGateway.host[12].wrappedHost.trafficgen  PRR:vector  ETV
attr interpolationmode  none
attr source  count(sinkRcvdPk)/count(sentPk)
attr title  "PRR, vector"
vector 176  Net802154MultiGateway.host[12].wrappedHost.trafficgen  sinkRcvdPk:vector(packetBytes)  ETV
attr interpolationmode  none
attr source  sinkRcvdPk
attr title  "own packets received by sink, vector(packetBytes)"
vector 720  Net802154MultiGateway.host[51].wrappedHost.trafficgen  sentPk:vector(packetBytes)  ETV
attr interpolationmode  none
attr source  sentPk
attr title  "packets sent, vector(packetBytes)"
vector 724  Net802154MultiGateway.host[51].wrappedHost.trafficgen  PRR:vector  ETV
attr interpolationmode  none
attr source  count(sinkRcvdPk)/count(sentPk)
attr title  "PRR, vector"
vector 160  Net802154MultiGateway.host[11].wrappedHost.trafficgen  sentPk:vector(packetBytes)  ETV
attr interpolationmode  none
attr source  sentPk
attr title  "packets sent, vector(packetBytes)"
vector 164  Net802154MultiGateway.host[11].wrappedHost.trafficgen  PRR:vector  ETV
attr interpolationmode  none
attr source  count(sinkRcvdPk)/count(sentPk)
attr title  "PRR, vector"
vector 722  Net802154MultiGateway.host[51].wrappedHost.trafficgen  sinkRcvdPk:vector(packetBytes)  ETV
attr interpolationmode  none
attr source  sinkRcvdPk
attr title  "own packets received by sink, vector(packetBytes)"
vector 314  Net802154MultiGateway.host[22].wrappedHost.trafficgen  sentPk:vector(packetBytes)  ETV
attr interpolationmode  none
attr source  sentPk
attr title  "packets sent, vector(packetBytes)"
vector 318  Net802154MultiGateway.host[22].wrappedHost.trafficgen  PRR:vector  ETV
attr interpolationmode  none
attr source  count(sinkRcvdPk)/count(sentPk)
attr title  "PRR, vector"
vector 678  Net802154MultiGateway.host[48].wrappedHost.trafficgen  sentPk:vector(packetBytes)  ETV
attr interpolationmode  none
attr source  sentPk
attr title  "packets sent, vector(packetBytes)"
vector 682  Net802154MultiGateway.host[48].wrappedHost.trafficgen  PRR:vector  ETV
attr interpolationmode  none
attr source  count(sinkRcvdPk)/count(sentPk)
attr title  "PRR, vector"
vector 162  Net802154MultiGateway.host[11].wrappedHost.trafficgen  sinkRcvdPk:vector(packetBytes)  ETV
attr interpolationmode  none
attr source  sinkRcvdPk
attr title  "own packets received by sink, vector(packetBytes)"
vector 680  Net802154MultiGateway.host[48].wrappedHost.trafficgen  sinkRcvdPk:vector(packetBytes)  ETV
attr interpolationmode  none
attr source  sinkRcvdPk
attr title  "own packets received by sink, vector(packetBytes)"
vector 316  Net802154MultiGateway.host[22].wrappedHost.trafficgen  sinkRcvdPk:vector(packetBytes)  ETV
attr interpolationmode  none
attr source  sinkRcvdPk
attr title  "own packets received by sink, vector(packetBytes)"
vector 440  Net802154MultiGateway.host[31].wrappedHost.trafficgen  sentPk:vector(packetBytes)  ETV
attr interpolationmode  none
attr source  sentPk
attr title  "packets sent, vector(packetBytes)"
vector 444  Net802154MultiGateway.host[31].wrappedHost.trafficgen  PRR:vector  ETV
attr interpolationmode  none
attr source  count(sinkRcvdPk)/count(sentPk)
attr title  "PRR, vector"
vector 442  Net802154MultiGateway.host[31].wrappedHost.trafficgen  sinkRcvdPk:vector(packetBytes)  ETV
attr interpolationmode  none
attr source  sinkRcvdPk
attr title  "own packets received by sink, vector(packetBytes)"
vector 790  Net802154MultiGateway.host[56].wrappedHost.trafficgen  sentPk:vector(packetBytes)  ETV
attr interpolationmode  none
attr source  sentPk
attr title  "packets sent, vector(packetBytes)"
vector 794  Net802154MultiGateway.host[56].wrappedHost.trafficgen  PRR:vector  ETV
attr interpolationmode  none
attr source  count(sinkRcvdPk)/count(sentPk)
attr title  "PRR, vector"
vector 258  Net802154MultiGateway.host[18].wrappedHost.trafficgen  sentPk:vector(packetBytes)  ETV
attr interpolationmode  none
attr source  sentPk
attr title  "packets sent, vector(packetBytes)"
vector 262  Net802154MultiGateway.host[18].wrappedHost.trafficgen  PRR:vector  ETV
attr interpolationmode  none
attr source  count(sinkRcvdPk)/count(sentPk)
attr title  "PRR, vector"
vector 792  Net802154MultiGateway.host[56].wrappedHost.trafficgen  sinkRcvdPk:vector(packetBytes)  ETV
attr interpolationmode  none
attr source  sinkRcvdPk
attr title  "own packets received by sink, vector(packetBytes)"
vector 260  Net802154MultiGateway.host[18].wrappedHost.trafficgen  sinkRcvdPk:vector(packetBytes)  ETV
attr interpolationmode  none
attr source  sinkRcvdPk
attr title  "own packets received by sink, vector(packetBytes)"
vector 328  Net802154MultiGateway.host[23].wrappedHost.trafficgen  sentPk:vector(packetBytes)  ETV
attr interpolationmode  none
attr source  sentPk
attr title  "packets sent, vector(packetBytes)"
vector 332  Net802154MultiGateway.host[23].wrappedHost.trafficgen  PRR:vector  ETV
attr interpolationmode  none
attr source  count(sinkRcvdPk)/count(sentPk)
attr title  "PRR, vector"
vector 34  Net802154MultiGateway.host[2].wrappedHost.trafficgen  sentPk:vector(packetBytes)  ETV
attr interpolationmode  none
attr source  sentPk
attr title  "packets sent, vector(packetBytes)"
vector 38  Net802154MultiGateway.host[2].wrappedHost.trafficgen  PRR:vector  ETV
attr interpolationmode  none
attr source  count(sinkRcvdPk)/count(sentPk)
attr title  "PRR, vector"
vector 36  Net802154MultiGateway.host[2].wrappedHost.trafficgen  sinkRcvdPk:vector(packetBytes)  ETV
attr interpolationmode  none
attr source  sinkRcvdPk
attr title  "own packets received by sink, vector(packetBytes)"
vector 146  Net802154MultiGateway.host[10].wrappedHost.trafficgen  sentPk:vector(packetBytes)  ETV
attr interpolationmode  none
attr source  sentPk
attr title  "packets sent, vector(packetBytes)"
vector 150  Net802154MultiGateway.host[10].wrappedHost.trafficgen  PRR:vector  ETV
attr interpolationmode  none
attr source  count(sinkRcvdPk)/count(sentPk)
attr title  "PRR, vector"
vector 776  Net802154MultiGateway.host[55].wrappedHost.trafficgen  sentPk:vector(packetBytes)  ETV
attr interpolationmode  none
attr source  sentPk
attr title  "packets sent, vector(packetBytes)"
vector 780  Net802154MultiGateway.host[55].wrappedHost.trafficgen  PRR:vector  ETV
attr interpolationmode  none
attr source  count(sinkRcvdPk)/count(sentPk)
attr title  "PRR, vector"
vector 330  Net802154MultiGateway.host[23].wrappedHost.trafficgen  sinkRcvdPk:vector(packetBytes)  ETV
attr interpolationmode  none
attr source  sinkRcvdPk
attr title  "own packets received by sink, vector(packetBytes)"
vector 398  Net802154MultiGateway.host[28].wrappedHost.trafficgen  sentPk:vector(packetBytes)  ETV
attr interpolationmode  none
attr source  sentPk
attr title  "packets sent, vector(packetBytes)"
vector 402  Net802154MultiGateway.host[28].wrappedHost.trafficgen  PRR:vector  ETV
attr interpolationmode  none
attr source  count(sinkRcvdPk)/count(sentPk)
attr title  "PRR, vector"
vector 148  Net802154MultiGateway.host[10].wrappedHost.trafficgen  sinkRcvdPk:vector(packetBytes)  ETV
attr interpolationmode  none
attr source  sinkRcvdPk
attr title  "own packets received by sink, vector(packetBytes)"
vector 778  Net802154MultiGateway.host[55].wrappedHost.trafficgen  sinkRcvdPk:vector(packetBytes)  ETV
attr interpolationmode  none
attr source  sinkRcvdPk
attr title  "own packets received by sink, vector(packetBytes)"
vector 496  Net802154MultiGateway.host[35].wrappedHost.trafficgen  sentPk:vector(packetBytes)  ETV
attr interpolationmode  none
attr source  sentPk
attr title  "packets sent, vector(packetBytes)"
vector 500  Net802154MultiGateway.host[35].wrappedHost.trafficgen  PRR:vector  ETV
attr interpolationmode  none
attr source  count(sinkRcvdPk)/count(sentPk)
attr title  "PRR, vector"
vector 400  Net802154MultiGateway.host[28].wrappedHost.trafficgen  sinkRcvdPk:vector(packetBytes)  ETV
attr interpolationmode  none
attr source  sinkRcvdPk
attr title  "own packets received by sink, vector(packetBytes)"
vector 498  Net802154MultiGateway.host[35].wrappedHost.trafficgen  sinkRcvdPk:vector(packetBytes)  ETV
attr interpolationmode  none
attr source  sinkRcvdPk
attr title  "own packets received by sink, vector(packetBytes)"
vector 272  Net802154MultiGateway.host[19].wrappedHost.trafficgen  sentPk:vector(packetBytes)  ETV
attr interpolationmode  none
attr source  sentPk
attr title  "packets sent, vector(packetBytes)"
vector 276  Net802154MultiGateway.host[19].wrappedHost.trafficgen  PRR:vector  ETV
attr interpolationmode  none
attr source  count(sinkRcvdPk)/count(sentPk)
attr title  "PRR, vector"
vector 274  Net802154MultiGateway.host[19].wrappedHost.trafficgen  sinkRcvdPk:vector(packetBytes)  ETV
attr interpolationmode  none
attr source  sinkRcvdPk
attr title  "own packets received by sink, vector(packetBytes)"
vector 762  Net802154MultiGateway.host[54].wrappedHost.trafficgen  sentPk:vector(packetBytes)  ETV
attr interpolationmode  none
attr source  sentPk
attr title  "packets sent, vector(packetBytes)"
vector 766  Net802154MultiGateway.host[54].wrappedHost.trafficgen  PRR:vector  ETV
attr interpolationmode  none
attr source  count(sinkRcvdPk)/count(sentPk)
attr title  "PRR, vector"
vector 764  Net802154MultiGateway.host[54].wrappedHost.trafficgen  sinkRcvdPk:vector(packetBytes)  ETV
attr interpolationmode  none
attr source  sinkRcvdPk
attr title  "own packets received by sink, vector(packetBytes)"
vector 538  Net802154MultiGateway.host[38].wrappedHost.trafficgen  sentPk:vector(packetBytes)  ETV
attr interpolationmode  none
attr source  sentPk
attr title  "packets sent, vector(packetBytes)"
vector 542  Net802154MultiGateway.host[38].wrappedHost.trafficgen  PRR:vector  ETV
attr interpolationmode  none
attr source  count(sinkRcvdPk)/count(sentPk)
attr title  "PRR, vector"
vector 860  Net802154MultiGateway.host[61].wrappedHost.trafficgen  sentPk:vector(packetBytes)  ETV
attr interpolationmode  none
attr source  sentPk
attr title  "packets sent, vector(packetBytes)"
vector 864  Net802154MultiGateway.host[61].wrappedHost.trafficgen  PRR:vector  ETV
attr interpolationmode  none
attr source  count(sinkRcvdPk)/count(sentPk)
attr title  "PRR, vector"
vector 650  Net802154MultiGateway.host[46].wrappedHost.trafficgen  sentPk:vector(packetBytes)  ETV
attr interpolationmode  none
attr source  sentPk
attr title  "packets sent, vector(packetBytes)"
vector 654  Net802154MultiGateway.host[46].wrappedHost.trafficgen  PRR:vector  ETV
attr interpolationmode  none
attr source  count(sinkRcvdPk)/count(sentPk)
attr title  "PRR, vector"
vector 540  Net802154MultiGateway.host[38].wrappedHost.trafficgen  sinkRcvdPk:vector(packetBytes)  ETV
attr interpolationmode  none
attr source  sinkRcvdPk
attr title  "own packets received by sink, vector(packetBytes)"
vector 652  Net802154MultiGateway.host[46].wrappedHost.trafficgen  sinkRcvdPk:vector(packetBytes)  ETV
attr interpolationmode  none
attr source  sinkRcvdPk
attr title  "own packets received by sink, vector(packetBytes)"
vector 862  Net802154MultiGateway.host[61].wrappedHost.trafficgen  sinkRcvdPk:vector(packetBytes)  ETV
attr interpolationmode  none
attr source  sinkRcvdPk
attr title  "own packets received by sink, vector(packetBytes)"
vector 412  Net802154MultiGateway.host[29].wrappedHost.trafficgen  sentPk:vector(packetBytes)  ETV
attr interpolationmode  none
attr source  sentPk
attr title  "packets sent, vector(packetBytes)"
vector 416  Net802154MultiGateway.host[29].wrappedHost.trafficgen  PRR:vector  ETV
attr interpolationmode  none
attr source  count(sinkRcvdPk)/count(sentPk)
attr title  "PRR, vector"
vector 414  Net802154MultiGateway.host[29].wrappedHost.trafficgen  sinkRcvdPk:vector(packetBytes)  ETV
attr interpolationmode  none
attr source  sinkRcvdPk
attr title  "own packets received by sink, vector(packetBytes)"
vector 216  Net802154MultiGateway.host[15].wrappedHost.trafficgen  sentPk:vector(packetBytes)  ETV
attr interpolationmode  none
attr source  sentPk
attr title  "packets sent, vector(packetBytes)"
vector 220  Net802154MultiGateway.host[15].wrappedHost.trafficgen  PRR:vector  ETV
attr interpolationmode  none
attr source  count(sinkRcvdPk)/count(sentPk)
attr title  "PRR, vector"
vector 218  Net802154MultiGateway.host[15].wrappedHost.trafficgen  sinkRcvdPk:vector(packetBytes)  ETV
attr interpolationmode  none
attr source  sinkRcvdPk
attr title  "own packets received by sink, vector(packetBytes)"
vector 510  Net802154MultiGateway.host[36].wrappedHost.trafficgen  sentPk:vector(packetBytes)  ETV
attr interpolationmode  none
attr source  sentPk
attr title  "packets sent, vector(packetBytes)"
vector 514  Net802154MultiGateway.host[36].wrappedHost.trafficgen  PRR:vector  ETV
attr interpolationmode  none
attr source  count(sinkRcvdPk)/count(sentPk)
attr title  "PRR, vector"
vector 608  Net802154MultiGateway.host[43].wrappedHost.trafficgen  sentPk:vector(packetBytes)  ETV
attr interpolationmode  none
attr source  sentPk
attr title  "packets sent, vector(packetBytes)"
vector 612  Net802154MultiGateway.host[43].wrappedHost.trafficgen  PRR:vector  ETV
attr interpolationmode  none
attr source  count(sinkRcvdPk)/count(sentPk)
attr title  "PRR, vector"
vector 512  Net802154MultiGateway.host[36].wrappedHost.trafficgen  sinkRcvdPk:vector(packetBytes)  ETV
attr interpolationmode  none
attr source  sinkRcvdPk
attr title  "own packets received by sink, vector(packetBytes)"
vector 286  Net802154MultiGateway.host[20].wrappedHost.trafficgen  sentPk:vector(packetBytes)  ETV
attr interpolationmode  none
attr source  sentPk
attr title  "packets sent, vector(packetBytes)"
vector 290  Net802154MultiGateway.host[20].wrappedHost.trafficgen  PRR:vector  ETV
attr interpolationmode  none
attr source  count(sinkRcvdPk)/count(sentPk)
attr title  "PRR, vector"
vector 610  Net802154MultiGateway.host[43].wrappedHost.trafficgen  sinkRcvdPk:vector(packetBytes)  ETV
attr interpolationmode  none
attr source  sinkRcvdPk
attr title  "own packets received by sink, vector(packetBytes)"
vector 288  Net802154MultiGateway.host[20].wrappedHost.trafficgen  sinkRcvdPk:vector(packetBytes)  ETV
attr interpolationmode  none
attr source  sinkRcvdPk
attr title  "own packets received by sink, vector(packetBytes)"
vector 20  Net802154MultiGateway.host[1].wrappedHost.trafficgen  sentPk:vector(packetBytes)  ETV
attr interpolationmode  none
attr source  sentPk
attr title  "packets sent, vector(packetBytes)"
vector 24  Net802154MultiGateway.host[1].wrappedHost.trafficgen  PRR:vector  ETV
attr interpolationmode  none
attr source  count(sinkRcvdPk)/count(sentPk)
attr title  "PRR, vector"
vector 22  Net802154MultiGateway.host[1].wrappedHost.trafficgen  sinkRcvdPk:vector(packetBytes)  ETV
attr interpolationmode  none
attr source  sinkRcvdPk
attr title  "own packets received by sink, vector(packetBytes)"
vector 818  Net802154MultiGateway.host[58].wrappedHost.trafficgen  sentPk:vector(packetBytes)  ETV
attr interpolationmode  none
attr source  sentPk
attr title  "packets sent, vector(packetBytes)"
vector 822  Net802154MultiGateway.host[58].wrappedHost.trafficgen  PRR:vector  ETV
attr interpolationmode  none
attr source  count(sinkRcvdPk)/count(sentPk)
attr title  "PRR, vector"
vector 820  Net802154MultiGateway.host[58].wrappedHost.trafficgen  sinkRcvdPk:vector(packetBytes)  ETV
attr interpolationmode  none
attr source  sinkRcvdPk
attr title  "own packets received by sink, vector(packetBytes)"
vector 692  Net802154MultiGateway.host[49].wrappedHost.trafficgen  sentPk:vector(packetBytes)  ETV
attr interpolationmode  none
attr source  sentPk
attr title  "packets sent, vector(packetBytes)"
vector 696  Net802154MultiGateway.host[49].wrappedHost.trafficgen  PRR:vector  ETV
attr interpolationmode  none
attr source  count(sinkRcvdPk)/count(sentPk)
attr title  "PRR, vector"
vector 694  Net802154MultiGateway.host[49].wrappedHost.trafficgen  sinkRcvdPk:vector(packetBytes)  ETV
attr interpolationmode  none
attr source  sinkRcvdPk
attr title  "own packets received by sink, vector(packetBytes)"
vector 356  Net802154MultiGateway.host[25].wrappedHost.trafficgen  sentPk:vector(packetBytes)  ETV
attr interpolationmode  none
attr source  sentPk
attr title  "packets sent, vector(packetBytes)"
vector 360  Net802154MultiGateway.host[25].wrappedHost.trafficgen  PRR:vector  ETV
attr interpolationmode  none
attr source  count(sinkRcvdPk)/count(sentPk)
attr title  "PRR, vector"
vector 300  Net802154MultiGateway.host[21].wrappedHost.trafficgen  sentPk:vector(packetBytes)  ETV
attr interpolationmode  none
attr source  sentPk
attr title  "packets sent, vector(packetBytes)"
vector 304  Net802154MultiGateway.host[21].wrappedHost.trafficgen  PRR:vector  ETV
attr interpolationmode  none
attr source  count(sinkRcvdPk)/count(sentPk)
attr title  "PRR, vector"
vector 358  Net802154MultiGateway.host[25].wrappedHost.trafficgen  sinkRcvdPk:vector(packetBytes)  ETV
attr interpolationmode  none
attr source  sinkRcvdPk
attr title  "own packets received by sink, vector(packetBytes)"
vector 48  Net802154MultiGateway.host[3].wrappedHost.trafficgen  sentPk:vector(packetBytes)  ETV
attr interpolationmode  none
attr source  sentPk
attr title  "packets sent, vector(packetBytes)"
vector 52  Net802154MultiGateway.host[3].wrappedHost.trafficgen  PRR:vector  ETV
attr interpolationmode  none
attr source  count(sinkRcvdPk)/count(sentPk)
attr title  "PRR, vector"
vector 302  Net802154MultiGateway.host[21].wrappedHost.trafficgen  sinkRcvdPk:vector(packetBytes)  ETV
attr interpolationmode  none
attr source  sinkRcvdPk
attr title  "own packets received by sink, vector(packetBytes)"
vector 50  Net802154MultiGateway.host[3].wrappedHost.trafficgen  sinkRcvdPk:vector(packetBytes)  ETV
attr interpolationmode  none
attr source  sinkRcvdPk
attr title  "own packets received by sink, vector(packetBytes)"
vector 426  Net802154MultiGateway.host[30].wrappedHost.trafficgen  sentPk:vector(packetBytes)  ETV
attr interpolationmode  none
attr source  sentPk
attr title  "packets sent, vector(packetBytes)"
vector 430  Net802154MultiGateway.host[30].wrappedHost.trafficgen  PRR:vector  ETV
attr interpolationmode  none
attr source  count(sinkRcvdPk)/count(sentPk)
attr title  "PRR, vector"
vector 454  Net802154MultiGateway.host[32].wrappedHost.trafficgen  sentPk:vector(packetBytes)  ETV
attr interpolationmode  none
attr source  sentPk
attr title  "packets sent, vector(packetBytes)"
vector 458  Net802154MultiGateway.host[32].wrappedHost.trafficgen  PRR:vector  ETV
attr interpolationmode  none
attr source  count(sinkRcvdPk)/count(sentPk)
attr title  "PRR, vector"
vector 706  Net802154MultiGateway.host[50].wrappedHost.trafficgen  sentPk:vector(packetBytes)  ETV
attr interpolationmode  none
attr source  sentPk
attr title  "packets sent, vector(packetBytes)"
vector 710  Net802154MultiGateway.host[50].wrappedHost.trafficgen  PRR:vector  ETV
attr interpolationmode  none
attr source  count(sinkRcvdPk)/count(sentPk)
attr title  "PRR, vector"
vector 90  Net802154MultiGateway.host[6].wrappedHost.trafficgen  sentPk:vector(packetBytes)  ETV
attr interpolationmode  none
attr source  sentPk
attr title  "packets sent, vector(packetBytes)"
vector 94  Net802154MultiGateway.host[6].wrappedHost.trafficgen  PRR:vector  ETV
attr interpolationmode  none
attr source  count(sinkRcvdPk)/count(sentPk)
attr title  "PRR, vector"
vector 428  Net802154MultiGateway.host[30].wrappedHost.trafficgen  sinkRcvdPk:vector(packetBytes)  ETV
attr interpolationmode  none
attr source  sinkRcvdPk
attr title  "own packets received by sink, vector(packetBytes)"
vector 92  Net802154MultiGateway.host[6].wrappedHost.trafficgen  sinkRcvdPk:vector(packetBytes)  ETV
attr interpolationmode  none
attr source  sinkRcvdPk
attr title  "own packets received by sink, vector(packetBytes)"
vector 846  Net802154MultiGateway.host[60].wrappedHost.trafficgen  sentPk:vector(packetBytes)  ETV
attr interpolationmode  none
attr source  sentPk
attr title  "packets sent, vector(packetBytes)"
vector 850  Net802154MultiGateway.host[60].wrappedHost.trafficgen  PRR:vector  ETV
attr interpolationmode  none
attr source  count(sinkRcvdPk)/count(sentPk)
attr title  "PRR, vector"
vector 708  Net802154MultiGateway.host[50].wrappedHost.trafficgen  sinkRcvdPk:vector(packetBytes)  ETV
attr interpolationmode  none
attr source  sinkRcvdPk
attr title  "own packets received by sink, vector(packetBytes)"
vector 456  Net802154MultiGateway.host[32].wrappedHost.trafficgen  sinkRcvdPk:vector(packetBytes)  ETV
attr interpolationmode  none
attr source  sinkRcvdPk
attr title  "own packets received by sink, vector(packetBytes)"
vector 848  Net802154MultiGateway.host[60].wrappedHost.trafficgen  sinkRcvdPk:vector(packetBytes)  ETV
attr interpolationmode  none
attr source  sinkRcvdPk
attr title  "own packets received by sink, vector(packetBytes)"
vector 636  Net802154MultiGateway.host[45].wrappedHost.trafficgen  sentPk:vector(packetBytes)  ETV
attr interpolationmode  none
attr source  sentPk
attr title  "packets sent, vector(packetBytes)"
vector 640  Net802154MultiGateway.host[45].wrappedHost.trafficgen  PRR:vector  ETV
attr interpolationmode  none
attr source  count(sinkRcvdPk)/count(sentPk)
attr title  "PRR, vector"
vector 566  Net802154MultiGateway.host[40].wrappedHost.trafficgen  sentPk:vector(packetBytes)  ETV
attr interpolationmode  none
attr source  sentPk
attr title  "packets sent, vector(packetBytes)"
vector 570  Net802154MultiGateway.host[40].wrappedHost.trafficgen  PRR:vector  ETV
attr interpolationmode  none
attr source  count(sinkRcvdPk)/count(sentPk)
attr title  "PRR, vector"
vector 638  Net802154MultiGateway.host[45].wrappedHost.trafficgen  sinkRcvdPk:vector(packetBytes)  ETV
attr interpolationmode  none
attr source  sinkRcvdPk
attr title  "own packets received by sink, vector(packetBytes)"
vector 568  Net802154MultiGateway.host[40].wrappedHost.trafficgen  sinkRcvdPk:vector(packetBytes)  ETV
attr interpolationmode  none
attr source  sinkRcvdPk
attr title  "own packets received by sink, vector(packetBytes)"
vector 118  Net802154MultiGateway.host[8].wrappedHost.trafficgen  sentPk:vector(packetBytes)  ETV
attr interpolationmode  none
attr source  sentPk
attr title  "packets sent, vector(packetBytes)"
vector 122  Net802154MultiGateway.host[8].wrappedHost.trafficgen  PRR:vector  ETV
attr interpolationmode  none
attr source  count(sinkRcvdPk)/count(sentPk)
attr title  "PRR, vector"
vector 76  Net802154MultiGateway.host[5].wrappedHost.trafficgen  sentPk:vector(packetBytes)  ETV
attr interpolationmode  none
attr source  sentPk
attr title  "packets sent, vector(packetBytes)"
vector 80  Net802154MultiGateway.host[5].wrappedHost.trafficgen  PRR:vector  ETV
attr interpolationmode  none
attr source  count(sinkRcvdPk)/count(sentPk)
attr title  "PRR, vector"
vector 120  Net802154MultiGateway.host[8].wrappedHost.trafficgen  sinkRcvdPk:vector(packetBytes)  ETV
attr interpolationmode  none
attr source  sinkRcvdPk
attr title  "own packets received by sink, vector(packetBytes)"
vector 370  Net802154MultiGateway.host[26].wrappedHost.trafficgen  sentPk:vector(packetBytes)  ETV
attr interpolationmode  none
attr source  sentPk
attr title  "packets sent, vector(packetBytes)"
vector 374  Net802154MultiGateway.host[26].wrappedHost.trafficgen  PRR:vector  ETV
attr interpolationmode  none
attr source  count(sinkRcvdPk)/count(sentPk)
attr title  "PRR, vector"
vector 78  Net802154MultiGateway.host[5].wrappedHost.trafficgen  sinkRcvdPk:vector(packetBytes)  ETV
attr interpolationmode  none
attr source  sinkRcvdPk
attr title  "own packets received by sink, vector(packetBytes)"
vector 372  Net802154MultiGateway.host[26].wrappedHost.trafficgen  sinkRcvdPk:vector(packetBytes)  ETV
attr interpolationmode  none
attr source  sinkRcvdPk
attr title  "own packets received by sink, vector(packetBytes)"
vector 524  Net802154MultiGateway.host[37].wrappedHost.trafficgen  sentPk:vector(packetBytes)  ETV
attr interpolationmode  none
attr source  sentPk
attr title  "packets sent, vector(packetBytes)"
vector 528  Net802154MultiGateway.host[37].wrappedHost.trafficgen  PRR:vector  ETV
attr interpolationmode  none
attr source  count(sinkRcvdPk)/count(sentPk)
attr title  "PRR, vector"
vector 804  Net802154MultiGateway.host[57].wrappedHost.trafficgen  sentPk:vector(packetBytes)  ETV
attr interpolationmode  none
attr source  sentPk
attr title  "packets sent, vector(packetBytes)"
vector 808  Net802154MultiGateway.host[57].wrappedHost.trafficgen  PRR:vector  ETV
attr interpolationmode  none
attr source  count(sinkRcvdPk)/count(sentPk)
attr title  "PRR, vector"
vector 526  Net802154MultiGateway.host[37].wrappedHost.trafficgen  sinkRcvdPk:vector(packetBytes)  ETV
attr interpolationmode  none
attr source  sinkRcvdPk
attr title  "own packets received by sink, vector(packetBytes)"
vector 806  Net802154MultiGateway.host[57].wrappedHost.trafficgen  sinkRcvdPk:vector(packetBytes)  ETV
attr interpolationmode  none
attr source  sinkRcvdPk
attr title  "own packets received by sink, vector(packetBytes)"
vector 468  Net802154MultiGateway.host[33].wrappedHost.trafficgen  sentPk:vector(packetBytes)  ETV
attr interpolationmode  none
attr source  sentPk
attr title  "packets sent, vector(packetBytes)"
vector 472  Net802154MultiGateway.host[33].wrappedHost.trafficgen  PRR:vector  ETV
attr interpolationmode  none
attr source  count(sinkRcvdPk)/count(sentPk)
attr title  "PRR, vector"
vector 470  Net802154MultiGateway.host[33].wrappedHost.trafficgen  sinkRcvdPk:vector(packetBytes)  ETV
attr interpolationmode  none
attr source  sinkRcvdPk
attr title  "own packets received by sink, vector(packetBytes)"
vector 244  Net802154MultiGateway.host[17].wrappedHost.trafficgen  sentPk:vector(packetBytes)  ETV
attr interpolationmode  none
attr source  sentPk
attr title  "packets sent, vector(packetBytes)"
vector 248  Net802154MultiGateway.host[17].wrappedHost.trafficgen  PRR:vector  ETV
attr interpolationmode  none
attr source  count(sinkRcvdPk)/count(sentPk)
attr title  "PRR, vector"
vector 246  Net802154MultiGateway.host[17].wrappedHost.trafficgen  sinkRcvdPk:vector(packetBytes)  ETV
attr interpolationmode  none
attr source  sinkRcvdPk
attr title  "own packets received by sink, vector(packetBytes)"
vector 104  Net802154MultiGateway.host[7].wrappedHost.trafficgen  sentPk:vector(packetBytes)  ETV
attr interpolationmode  none
attr source  sentPk
attr title  "packets sent, vector(packetBytes)"
vector 108  Net802154MultiGateway.host[7].wrappedHost.trafficgen  PRR:vector  ETV
attr interpolationmode  none
attr source  count(sinkRcvdPk)/count(sentPk)
attr title  "PRR, vector"
vector 106  Net802154MultiGateway.host[7].wrappedHost.trafficgen  sinkRcvdPk:vector(packetBytes)  ETV
attr interpolationmode  none
attr source  sinkRcvdPk
attr title  "own packets received by sink, vector(packetBytes)"
vector 748  Net802154MultiGateway.host[53].wrappedHost.trafficgen  sentPk:vector(packetBytes)  ETV
attr interpolationmode  none
attr source  sentPk
attr title  "packets sent, vector(packetBytes)"
vector 752  Net802154MultiGateway.host[53].wrappedHost.trafficgen  PRR:vector  ETV
attr interpolationmode  none
attr source  count(sinkRcvdPk)/count(sentPk)
attr title  "PRR, vector"
vector 750  Net802154MultiGateway.host[53].wrappedHost.trafficgen  sinkRcvdPk:vector(packetBytes)  ETV
attr interpolationmode  none
attr source  sinkRcvdPk
attr title  "own packets received by sink, vector(packetBytes)"
vector 132  Net802154MultiGateway.host[9].wrappedHost.trafficgen  sentPk:vector(packetBytes)  ETV
attr interpolationmode  none
attr source  sentPk
attr title  "packets sent, vector(packetBytes)"
vector 136  Net802154MultiGateway.host[9].wrappedHost.trafficgen  PRR:vector  ETV
attr interpolationmode  none
attr source  count(sinkRcvdPk)/count(sentPk)
attr title  "PRR, vector"
vector 134  Net802154MultiGateway.host[9].wrappedHost.trafficgen  sinkRcvdPk:vector(packetBytes)  ETV
attr interpolationmode  none
attr source  sinkRcvdPk
attr title  "own packets received by sink, vector(packetBytes)"
vector 482  Net802154MultiGateway.host[34].wrappedHost.trafficgen  sentPk:vector(packetBytes)  ETV
attr interpolationmode  none
attr source  sentPk
attr title  "packets sent, vector(packetBytes)"
vector 486  Net802154MultiGateway.host[34].wrappedHost.trafficgen  PRR:vector  ETV
attr interpolationmode  none
attr source  count(sinkRcvdPk)/count(sentPk)
attr title  "PRR, vector"
vector 484  Net802154MultiGateway.host[34].wrappedHost.trafficgen  sinkRcvdPk:vector(packetBytes)  ETV
attr interpolationmode  none
attr source  sinkRcvdPk
attr title  "own packets received by sink, vector(packetBytes)"
vector 664  Net802154MultiGateway.host[47].wrappedHost.trafficgen  sentPk:vector(packetBytes)  ETV
attr interpolationmode  none
attr source  sentPk
attr title  "packets sent, vector(packetBytes)"
vector 668  Net802154MultiGateway.host[47].wrappedHost.trafficgen  PRR:vector  ETV
attr interpolationmode  none
attr source  count(sinkRcvdPk)/count(sentPk)
attr title  "PRR, vector"
vector 666  Net802154MultiGateway.host[47].wrappedHost.trafficgen  sinkRcvdPk:vector(packetBytes)  ETV
attr interpolationmode  none
attr source  sinkRcvdPk
attr title  "own packets received by sink, vector(packetBytes)"
vector 832  Net802154MultiGateway.host[59].wrappedHost.trafficgen  sentPk:vector(packetBytes)  ETV
attr interpolationmode  none
attr source  sentPk
attr title  "packets sent, vector(packetBytes)"
vector 836  Net802154MultiGateway.host[59].wrappedHost.trafficgen  PRR:vector  ETV
attr interpolationmode  none
attr source  count(sinkRcvdPk)/count(sentPk)
attr title  "PRR, vector"
vector 834  Net802154MultiGateway.host[59].wrappedHost.trafficgen  sinkRcvdPk:vector(packetBytes)  ETV
attr interpolationmode  none
attr source  sinkRcvdPk
attr title  "own packets received by sink, vector(packetBytes)"
5	1688085	161.011159533201	76
5	1688147	161.020865122562	76
5	1688462	161.053297379912	76
5	1688683	161.068149900818	76
5	1688810	161.088590850108	76
5	1689250	161.130260518391	76
5	1689559	161.140427432021	76
5	1689668	161.146683249164	76
5	1689796	161.156891974558	76
5	1690068	161.180482288295	76
5	1690208	161.192479651367	76
5	1690348	161.205671833798	76
5	1690542	161.222761892612	76
5	1690777	161.252550065061	76
5	1690920	161.265900050102	76
5	1691340	161.287258167185	76
5	1691406	161.299879110599	76
5	1691593	161.319980906703	76
5	1691880	161.356723338492	76
5	1692014	161.369444230168	76
5	1692252	161.380042780045	76
5	1692480	161.391618046706	76
5	1692639	161.400330076202	76
5	1692741	161.40487474333	76
5	1693043	161.41444133333	76
5	1693274	161.42333212917	76
5	1693476	161.437567088115	76
5	1693670	161.452754903914	76
5	1693823	161.462588834309	76
5	1694227	161.482869093368	76
5	1694368	161.498004696267	76
5	1694722	161.542128879282	76
5	1694796	161.547052923446	76
5	1695181	161.599117373075	76
5	1695594	161.618300274043	76
5	1695817	161.625254504839	76
5	1696233	161.638222700014	76
5	1696458	161.651567926292	76
5	1696649	161.668723320118	76
5	1696708	161.674547987246	76
5	1696891	161.701599237184	76
5	1697080	161.729448153056	76
5	1697207	161.74536577993	76
5	1697476	161.780861968784	76
5	1697854	161.793279231861	76
5	1698257	161.806904836468	76
5	1698428	161.81464148232	76
5	1698504	161.820590809894	76
5	1698631	161.829677929436	76
5	1698692	161.836462596564	76
5	1698983	161.857966648933	76
5	1699439	161.874300508669	76
5	1699562	161.881960584453	76
5	1699753	161.892761599704	76
5	1699983	161.915069319559	76
5	1700218	161.938651670495	76
5	1700405	161.972959124282	76
5	1700532	161.986776572623	76
5	1700769	161.999938223346	76
5	1700931	162.010791200493	76
5	1701188	162.037644637947	76
5	1701335	162.04819660387	76
5	1701393	162.053058931132	76
5	1701687	162.079840780555	76
5	1701933	162.093015851052	76
5	1702068	162.097848005874	76
5	1702426	162.111552002144	76
5	1702574	162.119857058133	76
5	1702651	162.127474444639	76
5	1703149	162.154922329827	76
5	1703371	162.170224529294	76
5	1703475	162.179909005945	76
5	1703644	162.192368097003	76
5	1703779	162.241794616439	76
5	1703957	162.254161433805	76
5	1704098	162.266150004983	76
5	1704341	162.285240640543	76
5	1705020	162.302617714137	76
5	1705230	162.311023062218	76
5	1705360	162.315902761351	76
5	1705465	162.321013694944	76
5	1705718	162.332723437565	76
5	1705839	162.341263619757	76
5	1706083	162.355741238557	76
5	1706360	162.368425470893	76
5	1706425	162.373354870043	76
5	1706647	162.390110349692	76
5	1706767	162.405516856378	76
5	1706904	162.416922752482	76
5	1707108	162.438185237468	76
5	1707445	162.479270554448	76
5	1707584	162.493479180434	76
5	1707870	162.553525617123	76
5	1708000	162.594228319693	76
5	1708462	162.612026917866	76
5	1708680	162.620929844405	76
5	1708758	162.629155221831	76
5	1708817	162.633603062434	76
5	1708881	162.649590475612	76
5	1709332	162.678919578787	76
5	1709458	162.683464245915	76
5	1709560	162.688968913043	76
5	1709706	162.697764271092	76
5	1709848	162.709957790579	76
5	1710075	162.729720586659	76
5	1710211	162.744174198452	76
5	1710275	162.751043209042	76
5	1710452	162.766359015391	76
5	1710579	162.802292272573	76
5	1710721	162.83010838412	76
5	1710990	162.843883744845	76
5	1711135	162.859779850513	76
5	1711374	162.88745702215	76
5	1711607	162.910095174868	76
5	1711845	162.930848168081	76
5	1711973	162.95148264793	76
5	1712229	162.995816474777	76
5	1712363	163.004101559536	76
5	1712578	163.017718134339	76
5	1713179	163.065999931185	76
5	1713239	163.070576970385	76
5	1713303	163.081360598313	76
5	1713519	163.112187025518	76
5	1713583	163.138686136287	76
5	1713830	163.178047124579	76
5	1714059	163.200524601069	76
5	1714295	163.225881241653	76
5	1714533	163.268773605508	76
5	1714768	163.312467900277	76
5	1714977	163.32742770555	76
5	1715272	163.345879591445	76
5	1715400	163.376571637809	76
5	1715960	163.452627391553	76
5	1716067	163.457684126563	76
5	1716299	163.475944626028	76
5	1716591	163.578657905178	76
5	1716773	163.589282838334	76
5	1717013	163.609141702251	76
5	1717356	163.623029682098	76
5	1717576	163.636321086603	76
5	1717717	163.65126488999	76
5	1717973	163.674316050335	76
5	1718089	163.681733150961	76
5	1718447	163.69840174737	76
5	1718525	163.706001641422	76
5	1718713	163.721193254147	76
5	1718837	163.732157667463	76
5	1719078	163.790985259059	76
5	1719250	163.801180506106	76
5	1719614	163.819557389824	76
5	1719736	163.82668649058	76
5	1719947	163.843118627854	76
5	1720214	163.867240979521	76
5	1720400	163.903342446145	76
5	1720524	163.915188096831	76
5	1720697	163.933126144447	76
5	1720930	163.978352064645	76
5	1721072	163.987749076583	76
5	1721407	164.003155244382	76
5	1721484	164.012355512428	76
5	1721719	164.064243420822	76
5	1721913	164.134836533105	76
5	1722191	164.19238028043	76
5	1722253	164.198526625899	76
5	1722496	164.240580086482	76
5	1722718	164.258999892124	76
5	1722954	164.282950111843	76
5	1723018	164.293547683181	76
5	1723143	164.312372652827	76
5	1723205	164.317288795635	76
5	1723325	164.339626804515	76
5	1723483	164.350258363579	76
5	1723788	164.408892311222	76
5	1723863	164.415094833095	76
5	1724108	164.428579986522	76
5	1724191	164.435600095901	76
5	1724446	164.454128097077	76
5	1724635	164.473895476129	76
5	1724749	164.481317108503	76
5	1725181	164.511909286629	76
5	1725372	164.518911720855	76
5	1725513	164.528366501934	76
5	1725575	164.535151169062	76
5	1725755	164.552488255907	76
5	1725897	164.564900054135	76
5	1726186	164.625740259041	76
5	1726499	164.660767880619	76
5	1726649	164.672463883544	76
5	1727102	164.700422749863	76
5	1727264	164.707528764455	76
5	1727398	164.716254633919	76
5	1727580	164.729669680081	76
5	1727669	164.73475877617	76
5	1727869	164.75329674409	76
5	1728194	164.826282972664	76
5	1728268	164.832107639792	76
5	1728441	164.845490962669	76
5	1728654	164.87319585	76
5	1728978	164.90793036218	76
5	1729047	164.913638742756	76
5	1729212	164.922539197063	76
5	1729362	164.932363266552	76
5	1729500	164.942302969435	76
5	1729611	164.948528664053	76
5	1729856	164.969053166026	76
5	1730118	164.982139109305	76
5	1730193	164.988124264681	76
5	1730322	165.088191433492	76
5	1730555	165.116142571913	76
5	1730913	165.135600119003	76
5	1731101	165.146045379914	76
5	1731274	165.159728606906	76
5	1731333	165.165553274034	76
5	1731765	165.20859087571	76
5	1732051	165.217728407444	76
5	1732223	165.22697670454	76
5	1732365	165.236726607062	76
5	1732506	165.246371561492	76
5	1732636	165.286298506391	76
5	1732825	165.336567193478	76
5	1733129	165.358460649276	76
5	1733384	165.372834162082	76
5	1733495	165.378457931258	76
5	1733624	165.391161116713	76
5	1733876	165.412552162376	76
5	1733987	165.422797101935	76
5	1734220	165.455577853245	76
5	1734345	165.477390045206	76
5	1734467	165.487600637241	76
5	1734654	165.522475537685	76
5	1734911	165.535663499422	76
5	1734991	165.54020816655	76
5	1735159	165.549688538994	76
5	1735398	165.564066992715	76
5	1735480	165.568947223904	76
5	1735719	165.589042943808	76
5	1735916	165.607833664758	76
5	1736182	165.664774822763	76
5	1736350	165.677272053647	76
5	1736639	165.691919299376	76
5	1736702	165.704523845016	76
5	1736827	165.718889116688	76
5	1736891	165.769244233099	76
5	1737197	165.829231607979	76
5	1737494	165.839998953657	76
5	1737688	165.850160025962	76
5	1737772	165.858676900083	76
5	1737905	165.880773170314	76
5	1737969	165.885637837442	76
5	1738310	165.902407698912	76
5	1738522	165.913907635345	76
5	1738595	165.921245396405	76
5	1738722	165.93825715562	76
5	1738969	165.990906309232	76
5	1739332	166.007771355494	76
5	1739461	166.015828137815	76
5	1739715	166.027865597471	76
5	1739857	166.041920168164	76
5	1740043	166.058881599493	76
5	1740421	166.121439899551	76
5	1740543	166.127563578304	76
5	1741003	166.146002832275	76
5	1741077	166.154065603321	76
5	1741261	166.164903407711	76
5	1741515	166.176271695893	76
5	1741881	166.186597075473	76
5	1741991	166.192682310506	76
5	1742211	166.202620631943	76
5	1742343	166.211547194466	76
5	1742428	166.217945472641	76
5	1742552	166.233408426792	76
5	1742738	166.273911578879	76
5	1742921	166.327056075169	76
5	1743239	166.378860669453	76
5	1743370	166.386226946506	76
5	1743559	166.397960425911	76
5	1744005	166.414443024995	76
5	1744157	166.420042798931	76
5	1744545	166.431721674462	76
5	1744924	166.441790617449	76
5	1745056	166.446694656333	76
5	1745273	166.453458240562	76
5	1745335	166.458812753265	76
5	1745395	166.464492824084	76
5	1745522	166.480781144595	76
5	1746105	166.520993962505	76
5	1746276	166.526098135511	76
5	1746528	166.537304205407	76
5	1746620	166.545994381875	76
5	1746692	166.550639290634	76
5	1746802	166.556107049003	76
5	1746973	166.567170322904	76
5	1747208	166.629557601408	76
5	1747391	166.64924043343	76
5	1747581	166.670621993839	76
5	1747642	166.677636762585	76
5	1747769	166.70227336395	76
5	1747938	166.716277399254	76
5	1748090	166.731922142111	76
5	1748313	166.752474868042	76
5	1748601	166.763914948032	76
5	1748788	166.769881303601	76
5	1749146	166.791125579737	76
5	1749291	166.800689763623	76
5	1749507	166.820433613472	76
5	1749746	166.841489739086	76
5	1749917	166.858781108217	76
5	1750089	166.865565775345	76
5	1750221	166.873509789251	76
5	1750296	166.881594133249	76
5	1750574	166.907273417373	76
5	1751004	166.929633221282	76
5	1751246	166.939989806034	76
5	1751600	166.950924881664	76
5	1751865	166.961303873119	76
5	1752037	166.969620243461	76
5	1752219	166.977625823536	76
5	1752366	166.985029070243	76
5	1752545	166.993545494923	76
5	1752689	167.000456668141	76
5	1752915	167.015272107796	76
5	1753226	167.035596481036	76
5	1753349	167.045748656289	76
5	1753898	167.070172482793	76
5	1754149	167.081554934449	76
5	1754278	167.089641413063	76
5	1754361	167.095466080191	76
5	1754624	167.111015350376	76
5	1754688	167.117194724966	76
5	1754874	167.127864673755	76
5	1754949	167.135411367137	76
5	1755068	167.13983963563	76
5	1755374	167.165549322493	76
5	1755431	167.171053989621	76
5	1755495	167.186898660479	76
5	1756000	167.248162927867	76
5	1756103	167.252502988261	76
5	1756193	167.257505425189	76
5	1756268	167.263240343057	76
5	1756329	167.268953269556	76
5	1756628	167.291883727488	76
5	1756816	167.304634849817	76
5	1756954	167.318901845509	76
5	1757202	167.359580344791	76
5	1757382	167.372285061202	76
5	1757615	167.39140045885	76
5	1757968	167.404583251817	76
5	1758081	167.41303322153	76
5	1758205	167.419233311304	76
5	1758606	167.439330389657	76
5	1758680	167.447344476798	76
5	1758916	167.47457122548	76
5	1759053	167.504847135339	76
5	1759508	167.527645440512	76
5	1759606	167.535303577278	76
5	1759762	167.539848244406	76
5	1759916	167.547340632439	76
5	1760194	167.559255976425	76
5	1760333	167.564951745575	76
5	1760482	167.577756827123	76
5	1760676	167.593757552517	76
5	1760811	167.606065938411	76
5	1760871	167.616090612846	76
5	1761142	167.63331473633	76
5	1761282	167.645068411921	76
5	1761527	167.6784628411	76
5	1761904	167.699691999642	76
5	1761996	167.705260258952	76
5	1762178	167.721037246811	76
5	1762305	167.763890499997	76
5	1762369	167.777531460131	76
5	1762561	167.792862111235	76
5	1762785	167.812359303853	76
5	1762912	167.849704506162	76
5	1763117	167.867282609098	76
5	1763245	167.878406810191	76
5	1763434	167.896922871367	76
5	1763669	167.91857775673	76
5	1763899	167.968384281211	76
5	1763962	167.974261079592	76
5	1764236	167.995428714501	76
5	1764380	168.006348500318	76
5	1764613	168.122835527703	76
5	1764805	168.161682761355	76
5	1765050	168.172664378731	76
5	1765108	168.177708556127	76
5	1765237	168.19554950958	76
5	1765422	168.215122161057	76
5	1765555	168.251566086494	76
5	1765744	168.263576977347	76
5	1766121	168.277556871526	76
5	1766219	168.282040958989	76
5	1766513	168.298257977919	76
5	1766572	168.303778525855	76
5	1766816	168.33271498405	76
5	1767179	168.353505271823	76
5	1767583	168.373117087417	76
5	1767720	168.381381042977	76
5	1767875	168.39123208371	76
5	1767996	168.401305449877	76
5	1768061	168.424977932657	76
5	1768186	168.44243467995	76
5	1768250	168.470181402449	76
5	1768311	168.480627292271	76
5	1768437	168.504817331265	76
5	1768620	168.533718202454	76
5	1768815	168.572895690814	76
5	1769091	168.585386667981	76
5	1769256	168.594089910996	76
5	1769685	168.614895306593	76
5	1769809	168.620151823026	76
5	1769988	168.629010283544	76
5	1770174	168.639101588258	76
5	1770302	168.693330487504	76
5	1770497	168.772808311363	76
5	1770595	168.781741705237	76
5	1770832	168.797595423057	76
5	1771186	168.810430032218	76
5	1771271	168.816238404174	76
5	1771424	168.828534526062	76
5	1771665	168.842953250062	76
5	1771943	168.859214222615	76
5	1772192	168.867015369447	76
5	1772431	168.874105687742	76
5	1772569	168.879327188885	76
5	1772866	168.890344538627	76
5	1772969	168.898056730403	76
5	1773245	168.908747843084	76
5	1773534	168.919483167682	76
5	1773823	168.936702188311	76
5	1773952	168.942235935704	76
5	1774110	168.948361387995	76
5	1774253	168.956908762486	76
5	1774472	168.965037331763	76
5	1774545	168.973554795826	76
5	1774745	169.007050633821	76
5	1775031	169.020062192032	76
5	1775275	169.032015730443	76
5	1775459	169.041018638619	76
5	1775738	169.056475465401	76
5	1775806	169.062366796041	76
5	1776025	169.077961834444	76
5	1776262	169.120976815522	76
5	1776459	169.175109034276	76
5	1776602	169.189401197311	76
5	1776785	169.25035601146	76
5	1776975	169.291312339644	76
5	1777113	169.307813972536	76
5	1777361	169.320899496922	76
5	1777437	169.328632641768	76
5	1777501	169.400235942074	76
5	1777700	169.41473631901	76
5	1777840	169.427606431237	76
5	1778057	169.466891862363	76
5	1778498	169.48538379666	76
5	1778699	169.493590175053	76
5	1779040	169.518299814877	76
5	1779282	169.529716505703	76
5	1779403	169.535861172831	76
5	1779490	169.540333510732	76
5	1779806	169.553679505356	76
5	1779954	169.560631117065	76
5	1780029	169.566296458347	76
5	1780196	169.582818483536	76
5	1780414	169.602447168758	76
5	1780587	169.613827401022	76
5	1780718	169.641480957088	76
5	1781041	169.652853280494	76
5	1781264	169.658966251199	76
5	1781567	169.670064114746	76
5	1782140	169.688636111238	76
5	1782240	169.693720509482	76
5	1782423	169.702179998561	76
5	1782505	169.706724665689	76
5	1782567	169.711226818369	76
5	1782690	169.724677310174	76
5	1782749	169.729541977302	76
5	1782938	169.770122840416	76
5	1783171	169.818426834872	76
5	1783583	169.853407973726	76
5	1783756	169.861304437629	76
5	1783988	169.872024797327	76
5	1784078	169.881919212644	76
5	1784322	169.896963828598	76
5	1784598	169.915588872871	76
5	1784684	169.92145450945	76
5	1784944	169.938524794617	76
5	1785062	169.946798772593	76
5	1785362	170.030530452268	76
5	1785586	170.072719941722	76
5	1786010	170.09206263707	76
5	1786124	170.096739090032	76
5	1786319	170.105547283423	76
5	1786396	170.115091724146	76
5	1786604	170.148208200218	76
5	1786795	170.156338934868	76
5	1786996	170.166779144656	76
5	1787061	170.178006446568	76
5	1787121	170.184733609132	76
5	1787307	170.249021402793	76
5	1787537	170.276854367701	76
5	1787930	170.300345473378	76
5	1788065	170.311883380029	76
5	1788328	170.329961519575	76
5	1788530	170.342421183575	76
5	1788722	170.35436027308	76
5	1788861	170.368205358151	76
5	1789214	170.39685249662	76
5	1789284	170.401449050665	76
5	1789509	170.418656627171	76
5	1789840	170.463044007007	76
5	1789987	170.469489197734	76
5	1790160	170.481732201899	76
5	1790359	170.505313498464	76
5	1790554	170.515469459072	76
5	1790846	170.529271971383	76
5	1791163	170.540036852318	76
5	1791483	170.55664856074	76
5	1791544	170.562176387345	76
5	1791775	170.57500489697	76
5	1791979	170.586154779713	76
5	1792093	170.590959743601	76
5	1792410	170.604523119635	76
5	1792775	170.620291826	76
5	1792835	170.625966076839	76
5	1792895	170.630933906119	76
5	1792957	170.640193447064	76
5	1793244	170.675779231402	76
5	1793465	170.688535473834	76
5	1793648	170.703450366673	76
5	1793952	170.737375741438	76
5	1794014	170.742955857349	76
5	1794135	170.751758268549	76
5	1794555	170.772038770416	76
5	1794682	170.777394927128	76
5	1794915	170.786617113359	76
5	1795041	170.793240996525	76
5	1795215	170.801427377012	76
5	1795602	170.818233070882	76
5	1795695	170.828183533513	76
5	1795963	170.853503566617	76
5	1796247	170.917590363548	76
5	1796408	170.933541128681	76
5	1796682	170.963634588088	76
5	1796820	170.974293827715	76
5	1797035	171.006782873195	76
5	1797614	171.043030468305	76
5	1797708	171.04759837772	76
5	1797854	171.057776465187	76
5	1798139	171.09211602831	76
5	1798266	171.113387068694	76
5	1798474	171.142306298303	76
5	1798598	171.154735770475	76
5	1798840	171.181947033302	76
5	1799173	171.204167050876	76
5	1799309	171.214098135017	76
5	1799439	171.270529857605	76
5	1799672	171.306922605268	76
5	1800047	171.343968455907	76
5	1800348	171.354325268367	76
5	1800465	171.359096876044	76
5	1800551	171.364982114091	76
5	1800786	171.381306786817	76
5	1801022	171.436243272399	76
5	1801305	171.483934216129	76
5	1801486	171.497579160055	76
5	1801626	171.512686547397	76
5	1801839	171.573323310282	76
5	1801971	171.592590849453	76
5	1802227	171.60624194152	76
5	1802370	171.620412876399	76
5	1802629	171.641146653805	76
5	1802878	171.659972914989	76
5	1803075	171.673313932191	76
5	1803194	171.678914864387	76
5	1803394	171.690646572249	76
5	1803577	171.707404806081	76
5	1803763	171.729888127138	76
5	1803952	171.751450912385	76
5	1804078	171.765294575059	76
5	1804264	171.801331283765	76
5	1804480	171.818591651691	76
5	1804636	171.829741339515	76
5	1804695	171.837516276652	76
5	1804910	171.866467664052	76
5	1805052	171.883343325685	76
5	1805191	171.895924850859	76
5	1805417	171.918725764316	76
5	1805587	171.925669985698	76
5	1805778	171.938624895865	76
5	1805968	171.950333166419	76
5	1806027	171.955265562993	76
5	1806327	172.080856458516	76
5	1806558	172.126041838935	76
5	1806826	172.157531676552	76
5	1806953	172.168994445615	76
5	1807239	172.221951390957	76
5	1807381	172.233363547447	76
5	1807499	172.278393123448	76
5	1807876	172.28950173479	76
5	1808078	172.296607738407	76
5	1808208	172.303199290167	76
5	1808381	172.311223798028	76
5	1808514	172.320841103888	76
5	1808806	172.335112465156	76
5	1809001	172.345488513582	76
5	1809258	172.35705177453	76
5	1809502	172.371953455222	76
5	1809701	172.386068046002	76
5	1809823	172.393191291289	76
5	1809962	172.404009812825	76
5	1810090	172.434354293695	76
5	1810330	172.488335653582	76
5	1810827	172.506302790604	76
5	1810906	172.511177133498	76
5	1811200	172.526119853633	76
5	1811426	172.547339726496	76
5	1811541	172.552204393624	76
5	1811701	172.560630038807	76
5	1811815	172.56706913681	76
5	1811939	172.577824589931	76
5	1812140	172.598234703316	76
5	1812216	172.60339612484	76
5	1812459	172.618763171637	76
5	1812601	172.630919578196	76
5	1812834	172.654313786801	76
5	1813077	172.688014963995	76
5	1813149	172.696567830207	76
5	1813454	172.715978301267	76
5	1813595	172.725528349261	76
5	1813796	172.745019575753	76
5	1814032	172.80480326451	76
5	1814159	172.839669278458	76
5	1814448	172.88757464042	76
5	1814681	172.902763891386	76
5	1815150	172.942936771125	76
5	1815293	172.948441438253	76
5	1815424	172.954103402253	76
5	1815687	172.967792389136	76
5	1815856	172.977897776782	76
5	1815994	172.988381387635	76
5	1816108	172.995440828007	76
5	1816304	173.01128833026	76
5	1816363	173.017432997388	76
5	1816563	173.034009864364	76
5	1816791	173.044577378055	76
5	1817063	173.05786087256	76
5	1817239	173.06575221683	76
5	1817554	173.080204062447	76
5	1817696	173.08894421715	76
5	1817807	173.095633749147	76
5	1817880	173.104429229577	76
5	1818148	173.125400446948	76
5	1818275	173.143645085746	76
5	1818447	173.15850626028	76
5	1818633	173.177448819798	76
5	1818950	173.195144134657	76
5	1819192	173.208610017233	76
5	1819575	173.229897322413	76
5	1819716	173.242910488504	76
5	1819780	173.270032951742	76
5	1819892	173.368780450833	76
5	1819954	173.384739467479	76
5	1820185	173.408383708383	76
5	1820421	173.433308350803	76
5	1820665	173.470756672208	76
5	1820878	173.483458818771	76
5	1821107	173.490871939582	76
5	1821535	173.506713714374	76
5	1821607	173.511821839384	76
5	1821827	173.524567946758	76
5	1821908	173.529112613886	76
5	1822088	173.538915482479	76
5	1822531	173.559219724898	76
5	1822819	173.572264081727	76
5	1822945	173.579395582482	76
5	1823403	173.598218490689	76
5	1823526	173.603179545165	76
5	1823727	173.614193038295	76
5	1823919	173.625959842115	76
5	1824150	173.64087128983	76
5	1824471	173.659440692026	76
5	1824596	173.674826088173	76
5	1824815	173.705856891834	76
5	1825052	173.750661088135	76
5	1825117	173.774514041348	76
5	1825376	173.802993345189	76
5	1825521	173.813632275201	76
5	1825739	173.830399620573	76
5	1825866	173.853888109749	76
5	1826110	173.893191358355	76
5	1826376	173.90918383691	76
5	1826553	173.944297197095	76
5	1826848	173.959362960581	76
5	1827026	173.967933996895	76
5	1827088	173.975904390495	76
5	1827287	173.991390576742	76
5	1827460	174.004618842881	76
5	1827645	174.022987051883	76
5	1827997	174.047433019845	76
5	1828057	174.052250346502	76
5	1828288	174.084954883636	76
5	1828586	174.127729115941	76
5	1829007	174.144559028692	76
5	1829258	174.15407810454	76
5	1829400	174.161169700012	76
5	1829544	174.167221211292	76
5	1829710	174.172751320616	76
5	1830013	174.183036706763	76
5	1830131	174.191260419857	76
5	1830256	174.198045086985	76
5	1830559	174.218375968796	76
5	1830701	174.230652919425	76
5	1830981	174.271086982432	76
5	1831232	174.299436275676	76
5	1831451	174.310650369432	76
5	1831640	174.329806867772	76
5	1831904	174.370977370152	76
5	1832038	174.377060591543	76
5	1832426	174.394536964128	76
5	1832547	174.403651784695	76
5	1832819	174.425699724358	76
5	1833041	174.448196137593	76
5	1833285	174.484177633442	76
5	1833541	174.509242052091	76
5	1833705	174.517745097511	76
5	1833936	174.525272506501	76
5	1834093	174.531737173629	76
5	1834268	174.538110339984	76
5	1834414	174.55526176459	76
5	1834474	174.561086431718	76
5	1834591	174.567999098846	76
5	1834830	174.601808530537	76
5	1834979	174.637103810782	76
5	1835197	174.648485706705	76
5	1835633	174.665754974202	76
5	1836140	174.686219134885	76
5	1836308	174.69215190082	76
5	1836716	174.707812946986	76
5	1836855	174.713637614114	76
5	1837013	174.720385190301	76
5	1837268	174.730906058013	76
5	1837358	174.737521325984	76
5	1837433	174.74463352389	76
5	1837955	174.769098941009	76
5	1838032	174.773643608137	76
5	1838091	174.778174342714	76
5	1838154	174.790301400614	76
5	1838338	174.829828847615	76
5	1838569	174.854791139756	76
5	1838909	174.882359112137	76
5	1839238	174.901055031324	76
5	1839373	174.909317625858	76
5	1839514	174.922243287009	76
5	1839843	174.944391398953	76
5	1840085	174.951570375489	76
5	1840240	174.95896079187	76
5	1840301	174.963573290477	76
5	1840509	174.978931914988	76
5	1840752	175.020017913244	76
5	1840933	175.039025596262	76
5	1841130	175.054859067997	76
5	1841609	175.074037349775	76
5	1841940	175.087909203178	76
5	1842166	175.098320553119	76
5	1842300	175.102940641819	76
5	1842508	175.111205768368	76
5	1842642	175.121306380914	76
5	1842878	175.13659140022	76
5	1842999	175.144338714546	76
5	1843176	175.156785786143	76
5	1843412	175.203696832556	76
5	1843598	175.222401570802	76
5	1843828	175.241768061248	76
5	1843903	175.247829671268	76
5	1844103	175.265129124108	76
5	1844328	175.277354439631	76
5	1844456	175.283593916808	76
5	1844642	175.296333816749	76
5	1844841	175.318426246959	76
5	1845037	175.334586115126	76
5	1845236	175.348762129158	76
5	1845335	175.354893370338	76
5	1845647	175.372348215121	76
5	1845767	175.381572723531	76
5	1845837	175.395432501134	76
5	1845894	175.402277867057	76
5	1846127	175.48110406203	76
5	1846362	175.507730006735	76
5	1846549	175.523851333702	76
5	1846735	175.569643124611	76
5	1846991	175.592861554001	76
5	1847191	175.604311337773	76
5	1847313	175.612588109238	76
5	1847581	175.633864594403	76
5	1847903	175.654802617442	76
5	1847962	175.661498428172	76
5	1848350	175.685682236681	76
5	1848503	175.694793026779	76
5	1848704	175.710578055227	76
5	1848874	175.721114781427	76
5	1849065	175.741305602246	76
5	1849192	175.819686159002	76
5	1849491	175.85170593995	76
5	1849685	175.861817553022	76
5	1849808	175.870922278416	76
5	1850043	175.909311195356	76
5	1850344	175.93298618593	76
5	1850474	175.943144517054	76
5	1850867	175.959982236993	76
5	1851087	175.969108754951	76
5	1851203	175.974281911864	76
5	1851481	175.98518741873	76
5	1851580	175.989983684199	76
5	1851723	176.003105628429	76
5	1852021	176.031407345375	76
5	1852147	176.04318868031	76
5	1852409	176.064413589655	76
5	1852539	176.070241259275	76
5	1852840	176.085707405276	76
5	1852928	176.090152195506	76
5	1853126	176.102355205385	76
5	1853328	176.114651270219	76
5	1853499	176.127202689771	76
5	1853689	176.158882116406	76
5	1853943	176.176083723214	76
5	1854275	176.1907641316	76
5	1854390	176.19636476153	76
5	1854660	176.20975420043	76
5	1854738	176.216004528108	76
5	1854876	176.225599970756	76
5	1855021	176.235367527837	76
5	1855227	176.252814830484	76
5	1855522	176.273638473693	76
5	1855595	176.282115780125	76
5	1855843	176.347743969613	76
5	1856066	176.367089107192	76
5	1856196	176.402734322891	76
5	1856429	176.433669311127	76
5	1856562	176.487303923863	76
5	1856705	176.500584499935	76
5	1856767	176.507369167063	76
5	1857000	176.528617316674	76
5	1857186	176.57174862753	76
5	1857380	176.596767637009	76
5	1857504	176.607607827299	76
5	1857737	176.642666227242	76
5	1857923	176.659712597746	76
5	1857985	176.665715814161	76
5	1858221	176.717893754766	76
5	1858404	176.75456719034	76
5	1858676	176.778793469353	76
5	1858813	176.791550317942	76
5	1858940	176.816918430276	76
5	1859287	176.853829123339	76
5	1859425	176.866337634853	76
5	1859720	176.906351542115	76
5	1859890	176.916528198285	76
5	1860082	176.931863140395	76
5	1860389	176.9497060091	76
5	1860635	176.961353003598	76
5	1860699	176.968165667797	76
5	1860932	176.990539357778	76
5	1861059	177.025727026914	76
5	1861288	177.071155209716	76
5	1861426	177.081762922365	76
5	1861601	177.141654257293	76
5	1861901	177.159334151689	76
5	1861960	177.164402111446	76
5	1862276	177.192408327505	76
5	1862361	177.199271176189	76
5	1862595	177.218111415545	76
5	1862833	177.229369093465	76
5	1863137	177.243024834959	76
5	1863450	177.252453262968	76
5	1863566	177.257011475673	76
5	1863680	177.266175181887	76
5	1863803	177.275082308301	76
5	1863988	177.302469151175	76
5	1864174	177.339649269147	76
5	1864238	177.353533022833	76
5	1864478	177.379475991301	76
5	1864713	177.428518242644	76
5	1864844	177.441884062524	76
5	1865205	177.473120728786	76
5	1865356	177.484026719799	76
5	1865710	177.496373949558	76
5	1865948	177.508829394962	76
5	1866025	177.517505381504	76
5	1866256	177.538288830523	76
5	1866503	177.608765731811	76
5	1866689	177.627662903042	76
5	1867043	177.653237631654	76
5	1867127	177.661484704474	76
5	1867357	177.675232126306	76
5	1867453	177.685998787001	76
5	1867525	177.692100845191	76
5	1867664	177.706871723377	76
5	1867850	177.725997774987	76
5	1868378	177.756598127943	76
5	1868573	177.766079684665	76
5	1868686	177.771920025041	76
5	1868800	177.778015359174	76
5	1869093	177.792654574432	76
5	1869183	177.803115004398	76
5	1869322	177.81748055097	76
5	1869386	177.839695899369	76
5	1869511	177.883906633864	76
5	1869761	177.909495181931	76
5	1869979	177.928687687975	76
5	1870162	177.996641740599	76
5	1870592	178.022653653261	76
5	1870856	178.035111991553	76
5	1870967	178.04004451512	76
5	1871086	178.046718753839	76
5	1871226	178.059018065615	76
5	1871290	178.079616345369	76
5	1871474	178.097543459812	76
5	1871704	178.151691839848	76
5	1871955	178.172001185397	76
5	1872151	178.18437167711	76
5	1872505	178.200724258004	76
5	1872569	178.206577203269	76
5	1872863	178.248556585007	76
5	1873078	178.268912331764	76
5	1873302	178.287348329099	76
5	1873364	178.294107318661	76
5	1873772	178.368589766502	76
5	1873897	178.376887752658	76
5	1874081	178.39176586877	76
5	1874221	178.424018925636	76
5	1874416	178.441141198806	76
5	1874480	178.45882931901	76
[...]
850	3005358	282.2964005453	0.97938144329897
850	3005924	282.315954032708	0.98969072164948
850	3015009	283.139320261831	0.97959183673469
850	3015208	283.159833749239	0.98979591836735
850	3019297	283.534674318135	0.97979797979798
850	3019826	283.565892472671	0.98989898989899
850	3021931	283.714906451762	0.98
850	3022907	283.75485993917	0.99
860	1695581	161.618225862906	76
860	1698839	161.850907051457	76
860	1736013	165.653878596435	76
860	1785164	170.008416995056	76
860	1794122	170.750401469916	76
860	1802357	171.619673196593	76
860	1820839	173.480360257162	76
860	1822339	173.551430624515	76
860	1824116	173.638607234814	76
860	1858023	176.696420297554	76
860	1867912	177.742046567829	76
860	1888276	179.933999337581	76
860	1896614	180.412504292753	76
860	1896788	180.42278026436	76
860	1898351	180.485803645933	76
860	1904159	181.075564815644	76
860	1906209	181.233910744514	76
860	1908157	181.459143800559	76
860	1909903	181.579935293367	76
860	1910515	181.627290127335	76
860	1942611	184.257650921237	76
860	1955894	185.63993262756	76
860	1966178	186.703012545856	76
860	1968093	186.897378267196	76
860	1992766	188.62606488504	76
860	2008456	190.280261569379	76
860	2021864	191.560209129861	76
860	2040633	193.617502758975	76
860	2055660	195.175620010524	76
860	2059396	195.524886562228	76
860	2069506	196.489180118779	76
860	2072519	196.841622055242	76
860	2081701	197.543827477269	76
860	2099992	198.952488928722	76
860	2100153	198.966540969261	76
860	2107189	199.533766874894	76
860	2109581	199.733242731742	76
860	2132357	201.519910925387	76
860	2145451	202.877778873166	76
860	2145873	202.91618716664	76
860	2146540	202.954751410541	76
860	2166212	204.6669916041	76
860	2167740	204.757143197373	76
860	2168690	204.808895393287	76
860	2173578	205.424495894626	76
860	2184911	206.49655677494	76
860	2190035	207.065674792669	76
860	2191895	207.287038677398	76
860	2197381	207.889831761574	76
860	2199119	208.10277066237	76
860	2204358	208.53526105988	76
860	2214566	209.284466501501	76
860	2219907	209.728212088971	76
860	2239180	211.442297840159	76
860	2246881	212.123682382125	76
860	2275167	214.584346758638	76
860	2287145	215.677119737638	76
860	2288442	215.826065869592	76
860	2300194	217.175292409253	76
860	2302126	217.314095579937	76
860	2302366	217.351907753409	76
860	2315016	218.452419094234	76
860	2336014	220.498991948685	76
860	2348164	221.50809256849	76
860	2354870	222.084148572978	76
860	2359105	222.50038425503	76
860	2376809	224.035388408161	76
860	2380057	224.289357598312	76
860	2409675	227.855121512521	76
860	2411689	227.976404070443	76
860	2427742	229.317936918101	76
860	2431305	229.715037653179	76
860	2434005	230.019405674605	76
860	2450625	231.57256608935	76
860	2462293	232.713124059762	76
860	2487155	235.344521014083	76
860	2488051	235.395722615983	76
860	2506171	237.092978714393	76
860	2509250	237.479672949683	76
860	2521577	238.794539216814	76
860	2537100	240.319757011425	76
860	2545544	241.117294197852	76
860	2573834	243.983719323635	76
860	2584092	244.716235401233	76
860	2588421	245.031039104612	76
860	2619312	247.817560445019	76
860	2621822	248.067909667004	76
860	2623148	248.140411312564	76
860	2629381	248.760209046431	76
860	2638964	249.77748529248	76
860	2639990	249.82966776712	76
860	2673427	252.545217443973	76
860	2704178	255.173602397556	76
860	2713701	256.014922604837	76
860	2718879	256.367305008766	76
860	2722140	256.660889878439	76
860	2725250	256.98385409423	76
860	2732424	257.596785940368	76
860	2735353	257.926207721806	76
860	2751629	259.610286927824	76
862	1696708	161.674547987246	76
862	1699439	161.874300508669	76
862	1736350	165.677272053647	76
862	1785362	170.030530452268	76
862	1794682	170.777394927128	76
862	1802629	171.641146653805	76
862	1821535	173.506713714374	76
862	1822819	173.572264081727	76
862	1824471	173.659440692026	76
862	1858221	176.717893754766	76
862	1868686	177.771920025041	76
862	1888472	179.954192794793	76
862	1897475	180.446684001872	76
862	1898225	180.475997721572	76
862	1898700	180.505677103145	76
862	1904677	181.103198272856	76
862	1906408	181.257944201726	76
862	1908477	181.481257257771	76
862	1910361	181.606608750579	76
862	1911203	181.657931584547	76
862	1943162	184.285332378449	76
862	1956691	185.6876627519	76
862	1966539	186.727046003068	76
862	1968298	186.919171724408	76
862	1993157	188.662962342252	76
862	2008764	190.302055026591	76
862	2022735	191.602872740503	76
862	2041046	193.647194384847	76
862	2056302	195.211958134864	76
862	2059770	195.54636001944	76
862	2069788	196.508413575991	76
862	2073937	196.903928179582	76
862	2081939	197.564020934481	76
862	2100336	198.975882385934	76
862	2100743	198.993534426473	76
862	2107995	199.569160332106	76
862	2109812	199.756316188954	76
862	2132927	201.547864382599	76
862	2145708	202.901492330378	76
862	2146375	202.944780623852	76
862	2147287	202.996880867753	76
862	2166710	204.694305061312	76
862	2168247	204.777016654585	76
862	2169296	204.851632850499	76
862	2173914	205.445329351838	76
862	2185269	206.518670232152	76
862	2190247	207.090668249881	76
862	2192235	207.31531213461	76
862	2197812	207.923305218786	76
862	2200121	208.148516119582	76
862	2205070	208.567774517092	76
862	2215416	209.320499958713	76
862	2220362	209.756485546183	76
862	2239504	211.463771297371	76
862	2247271	212.146435839337	76
862	2275610	214.60678021585	76
862	2287523	215.69923319485	76
862	2288877	215.860275326804	76
862	2300626	217.197085866465	76
862	2302328	217.336849037149	76
862	2302564	217.374981210621	76
862	2315228	218.473572551446	76
862	2336476	220.524065405897	76
862	2350082	221.575566025702	76
862	2355239	222.10658203019	76
862	2359586	222.529297712242	76
862	2377240	224.060061865373	76
862	2380545	224.310831055524	76
862	2410207	227.883394969733	76
862	2412264	228.003397527655	76
862	2428402	229.350130375313	76
862	2431574	229.738431110391	76
862	2434215	230.042159131817	76
862	2451102	231.609415546562	76
862	2462492	232.735237516974	76
862	2487762	235.372794471295	76
862	2488383	235.417196073195	76
862	2506752	237.124532171605	76
862	2510212	237.534187074023	76
862	2522156	238.822492674026	76
862	2537302	240.344110468637	76
862	2546063	241.156368322192	76
862	2574031	244.006472780847	76
862	2584475	244.738348858445	76
862	2588784	245.052512561824	76
862	2619783	247.842041902231	76
862	2622374	248.088423124216	76
862	2623422	248.163484769776	76
862	2630274	248.802818503643	76
862	2640772	249.871029224332	76
862	2675071	252.601858901185	76
862	2704380	255.194435854768	76
862	2714840	256.049996062049	76
862	2719156	256.387498465978	76
862	2722627	256.692763335651	76
862	2725796	257.005007551442	76
862	2732734	257.61697939758	76
862	2735599	257.948001179018	76
862	2751908	259.631120385036	76
863	62	1	76
863	247	2.235485131687	76
863	273	2.52374809753	76
863	392	3.406555281864	76
863	470	4.33383193482	76
863	883	7.806637030377	76
863	944	8.420796498568	76
863	1000	8.807249908264	76
863	36753	12.898599050253	76
863	41400	13.051116811523	76
863	47097	13.381039201792	76
863	47819	13.416487564822	76
863	66438	14.472999355672	76
863	71742	14.675253832787	76
863	133867	19.862131120132	76
863	155215	22.307568104442	76
863	178716	24.464175812264	76
863	207120	26.913983881131	76
863	217875	28.000352525218	76
863	222921	28.341460092861	76
863	227940	28.725686388174	76
863	236964	29.37066307342	76
863	247352	30.434691027822	76
863	258634	31.534768353286	76
863	288454	33.66789689259	76
863	292983	34.003517275449	76
863	301544	34.95134010811	76
863	301913	34.972094307737	76
863	303046	35.095391364609	76
863	317970	36.522535069204	76
863	332727	38.026698924602	76
863	359959	40.663897986799	76
863	382831	42.612094034319	76
863	426964	46.986908829507	76
863	445116	48.606028168995	76
863	472189	51.152024773873	76
863	473630	51.280695476925	76
863	481742	51.882609213784	76
863	501174	53.865944486092	76
863	532759	56.495769864782	76
863	561912	59.123502096352	76
863	616889	63.63270608528	76
863	641131	65.891170974693	76
863	659198	67.424792810224	76
863	662154	67.719583937375	76
863	678693	69.402317830872	76
863	705602	71.825310992837	76
863	708642	72.340835897514	76
863	724220	73.816641037154	76
863	728579	74.290099863114	76
863	750130	76.136476334743	76
863	751889	76.442016276162	76
863	764007	77.674274519499	76
863	789155	79.906907370805	76
863	806264	81.328276148584	76
863	813005	81.802322486675	76
863	815314	82.024033104785	76
863	824168	82.797167901966	76
863	844075	84.607038326978	76
863	861640	86.320190410872	76
863	865190	86.609599373108	76
863	873339	87.209015264315	76
863	890215	88.951811581949	76
863	893111	89.163234679628	76
863	893829	89.2086295905	76
863	893841	89.21025887064	76
863	895418	89.350089217515	76
863	895833	89.36736275926	76
863	906539	90.387779295589	76
863	907502	90.48084219187	76
863	943494	93.773806534456	76
863	959967	95.276415529192	76
863	973039	96.665250236569	76
863	984009	97.712716978509	76
863	986109	97.883161417647	76
863	1010781	100.260537854172	76
863	1013703	100.669840181552	76
863	1041169	103.536363558984	76
863	1052015	104.538893865143	76
863	1057277	104.820624587181	76
863	1067027	105.586101553471	76
863	1067562	105.617608993334	76
863	1073872	105.996991081705	76
863	1074880	106.075782703828	76
863	1083675	107.112432387189	76
863	1092683	107.887778298631	76
863	1161935	113.756831499642	76
863	1162034	113.761367551888	76
863	1181149	115.51537869324	76
863	1196354	116.859713881906	76
863	1197378	116.891312126773	76
863	1198121	116.929954081349	76
863	1199752	117.113328420263	76
863	1210062	118.012032866936	76
863	1227115	119.566757679491	76
863	1256601	122.251034798513	76
863	1276262	123.983219522056	76
863	1295267	125.546879758302	76
863	1296807	125.698207844194	76
863	1305647	126.4096044669	76
863	1315507	127.255549937197	76
863	1324262	127.997395848561	76
863	1330827	128.546665748325	76
863	1332581	128.714717215006	76
863	1337939	129.301560970727	76
863	1376668	132.587659811699	76
863	1376730	132.59546490497	76
863	1378462	132.725358889924	76
863	1383034	133.074079861493	76
863	1383099	133.082564286932	76
863	1384986	133.303661930472	76
863	1391869	134.062197348501	76
863	1395551	134.412202586846	76
863	1414866	136.12819806574	76
863	1418716	136.43059229603	76
863	1422137	136.692130511393	76
863	1422829	136.769428199438	76
863	1426200	137.076026027621	76
863	1436910	137.904638055627	76
863	1441986	138.264842222876	76
863	1473174	140.776012896763	76
863	1493904	142.85232129942	76
863	1507232	144.095152109147	76
863	1510751	144.543416533207	76
863	1513647	144.818996813586	76
863	1517368	145.041000687764	76
863	1555849	148.357956496623	76
863	1568505	149.633298753238	76
863	1578531	150.596277023378	76
863	1595630	152.118522605896	76
863	1599600	152.512141531311	76
863	1602206	152.695714027969	76
863	1605235	152.930529099533	76
863	1616896	153.78322545439	76
863	1630288	155.080865441569	76
863	1651209	157.137875879077	76
863	1670140	159.166712437951	76
863	2756506	260.186846919024	76
863	2765447	261.075916333491	76
863	2784609	262.844731985272	76
863	2787336	263.052812743708	76
863	2802224	264.345310602492	76
863	2802502	264.36790890056	76
863	2821975	266.031672894726	76
863	2856885	269.3779679908	76
863	2875058	271.17809967307	76
863	2876264	271.243902466052	76
863	2887816	272.144948986767	76
863	2919353	274.609895162403	76
863	2929053	275.291638659149	76
863	2931772	275.501284775222	76
863	2952179	277.321867651903	76
863	2954977	277.479981167574	76
863	2962452	278.113499122852	76
863	2972575	279.243010672373	76
863	2993384	281.370332088522	76
863	3011804	282.900714160674	76
863	3021367	283.69625555533	76
863	3032709	284.534079337233	76
863	3043370	285.645375781941	76
863	3060494	287.375866385997	76
863	3061460	287.412180203511	76
863	3094329	290.388906350494	76
863	3099660	290.824289747461	76
863	3112592	292.210224336551	76
863	3114396	292.562542697744	76
863	3121924	293.122500869634	76
863	3123066	293.253506196664	76
863	3152540	295.781496016473	76
863	3168499	297.310063283727	76
863	3168731	297.33303331581	76
863	3171707	297.571450821596	76
863	3181736	298.493001898463	76
863	3199875	300.246141750111	76
863	3206567	300.736069435027	76
863	3214202	301.356700116388	76
863	3217891	301.710017593047	76
863	3243106	303.692299664804	76
863	3258152	305.205044713523	76
863	3269399	306.067086927021	76
863	3284601	307.544302650493	76
863	3326293	311.710620524015	76
863	3365088	315.023384641812	76
864	1695581	161.618225862906	-nan
864	1696708	161.674547987246	1
864	1698839	161.850907051457	0.5
864	1699439	161.874300508669	1
864	1736013	165.653878596435	0.66666666666667
864	1736350	165.677272053647	1
864	1785164	170.008416995056	0.75
864	1785362	170.030530452268	1
864	1794122	170.750401469916	0.8
864	1794682	170.777394927128	1
864	1802357	171.619673196593	0.83333333333333
864	1802629	171.641146653805	1
864	1820839	173.480360257162	0.85714285714286
864	1821535	173.506713714374	1
864	1822339	173.551430624515	0.875
864	1822819	173.572264081727	1
864	1824116	173.638607234814	0.88888888888889
864	1824471	173.659440692026	1
864	1858023	176.696420297554	0.9
864	1858221	176.717893754766	1
864	1867912	177.742046567829	0.90909090909091
864	1868686	177.771920025041	1
864	1888276	179.933999337581	0.91666666666667
864	1888472	179.954192794793	1
864	1896614	180.412504292753	0.92307692307692
864	1896788	180.42278026436	0.85714285714286
864	1897475	180.446684001872	0.92857142857143
864	1898225	180.475997721572	1
864	1898351	180.485803645933	0.93333333333333
864	1898700	180.505677103145	1
864	1904159	181.075564815644	0.9375
864	1904677	181.103198272856	1
864	1906209	181.233910744514	0.94117647058824
864	1906408	181.257944201726	1
864	1908157	181.459143800559	0.94444444444444
864	1908477	181.481257257771	1
864	1909903	181.579935293367	0.94736842105263
864	1910361	181.606608750579	1
864	1910515	181.627290127335	0.95
864	1911203	181.657931584547	1
864	1942611	184.257650921237	0.95238095238095
864	1943162	184.285332378449	1
864	1955894	185.63993262756	0.95454545454545
864	1956691	185.6876627519	1
864	1966178	186.703012545856	0.95652173913043
864	1966539	186.727046003068	1
864	1968093	186.897378267196	0.95833333333333
864	1968298	186.919171724408	1
864	1992766	188.62606488504	0.96
864	1993157	188.662962342252	1
864	2008456	190.280261569379	0.96153846153846
864	2008764	190.302055026591	1
864	2021864	191.560209129861	0.96296296296296
864	2022735	191.602872740503	1
864	2040633	193.617502758975	0.96428571428571
864	2041046	193.647194384847	1
864	2055660	195.175620010524	0.96551724137931
864	2056302	195.211958134864	1
864	2059396	195.524886562228	0.96666666666667
864	2059770	195.54636001944	1
864	2069506	196.489180118779	0.96774193548387
864	2069788	196.508413575991	1
864	2072519	196.841622055242	0.96875
864	2073937	196.903928179582	1
864	2081701	197.543827477269	0.96969696969697
864	2081939	197.564020934481	1
864	2099992	198.952488928722	0.97058823529412
864	2100153	198.966540969261	0.94285714285714
864	2100336	198.975882385934	0.97142857142857
864	2100743	198.993534426473	1
864	2107189	199.533766874894	0.97222222222222
864	2107995	199.569160332106	1
864	2109581	199.733242731742	0.97297297297297
864	2109812	199.756316188954	1
864	2132357	201.519910925387	0.97368421052632
864	2132927	201.547864382599	1
864	2145451	202.877778873166	0.97435897435897
864	2145708	202.901492330378	1
864	2145873	202.91618716664	0.975
864	2146375	202.944780623852	1
864	2146540	202.954751410541	0.97560975609756
864	2147287	202.996880867753	1
864	2166212	204.6669916041	0.97619047619048
864	2166710	204.694305061312	1
864	2167740	204.757143197373	0.97674418604651
864	2168247	204.777016654585	1
864	2168690	204.808895393287	0.97727272727273
864	2169296	204.851632850499	1
864	2173578	205.424495894626	0.97777777777778
864	2173914	205.445329351838	1
864	2184911	206.49655677494	0.97826086956522
864	2185269	206.518670232152	1
864	2190035	207.065674792669	0.97872340425532
864	2190247	207.090668249881	1
864	2191895	207.287038677398	0.97916666666667
864	2192235	207.31531213461	1
864	2197381	207.889831761574	0.97959183673469
864	2197812	207.923305218786	1
864	2199119	208.10277066237	0.98
864	2200121	208.148516119582	1
864	2204358	208.53526105988	0.98039215686275
864	2205070	208.567774517092	1
864	2214566	209.284466501501	0.98076923076923
864	2215416	209.320499958713	1
864	2219907	209.728212088971	0.9811320754717
864	2220362	209.756485546183	1
864	2239180	211.442297840159	0.98148148148148
864	2239504	211.463771297371	1
864	2246881	212.123682382125	0.98181818181818
864	2247271	212.146435839337	1
864	2275167	214.584346758638	0.98214285714286
864	2275610	214.60678021585	1
864	2287145	215.677119737638	0.98245614035088
864	2287523	215.69923319485	1
864	2288442	215.826065869592	0.98275862068966
864	2288877	215.860275326804	1
864	2300194	217.175292409253	0.98305084745763
864	2300626	217.197085866465	1
864	2302126	217.314095579937	0.98333333333333
864	2302328	217.336849037149	1
864	2302366	217.351907753409	0.98360655737705
864	2302564	217.374981210621	1
864	2315016	218.452419094234	0.98387096774194
864	2315228	218.473572551446	1
864	2336014	220.498991948685	0.98412698412698
864	2336476	220.524065405897	1
864	2348164	221.50809256849	0.984375
864	2350082	221.575566025702	1
864	2354870	222.084148572978	0.98461538461538
864	2355239	222.10658203019	1
864	2359105	222.50038425503	0.98484848484848
864	2359586	222.529297712242	1
864	2376809	224.035388408161	0.98507462686567
864	2377240	224.060061865373	1
864	2380057	224.289357598312	0.98529411764706
864	2380545	224.310831055524	1
864	2409675	227.855121512521	0.98550724637681
864	2410207	227.883394969733	1
864	2411689	227.976404070443	0.98571428571429
864	2412264	228.003397527655	1
864	2427742	229.317936918101	0.98591549295775
864	2428402	229.350130375313	1
864	2431305	229.715037653179	0.98611111111111
864	2431574	229.738431110391	1
864	2434005	230.019405674605	0.98630136986301
864	2434215	230.042159131817	1
864	2450625	231.57256608935	0.98648648648649
864	2451102	231.609415546562	1
864	2462293	232.713124059762	0.98666666666667
864	2462492	232.735237516974	1
864	2487155	235.344521014083	0.98684210526316
864	2487762	235.372794471295	1
864	2488051	235.395722615983	0.98701298701299
864	2488383	235.417196073195	1
864	2506171	237.092978714393	0.98717948717949
864	2506752	237.124532171605	1
864	2509250	237.479672949683	0.9873417721519
864	2510212	237.534187074023	1
864	2521577	238.794539216814	0.9875
864	2522156	238.822492674026	1
864	2537100	240.319757011425	0.98765432098765
864	2537302	240.344110468637	1
864	2545544	241.117294197852	0.98780487804878
864	2546063	241.156368322192	1
864	2573834	243.983719323635	0.98795180722892
864	2574031	244.006472780847	1
864	2584092	244.716235401233	0.98809523809524
864	2584475	244.738348858445	1
864	2588421	245.031039104612	0.98823529411765
864	2588784	245.052512561824	1
864	2619312	247.817560445019	0.98837209302326
864	2619783	247.842041902231	1
864	2621822	248.067909667004	0.98850574712644
864	2622374	248.088423124216	1
864	2623148	248.140411312564	0.98863636363636
864	2623422	248.163484769776	1
864	2629381	248.760209046431	0.98876404494382
864	2630274	248.802818503643	1
864	2638964	249.77748529248	0.98888888888889
864	2639990	249.82966776712	0.97802197802198
864	2640772	249.871029224332	0.98901098901099
864	2673427	252.545217443973	0.97826086956522
864	2675071	252.601858901185	0.98913043478261
864	2704178	255.173602397556	0.97849462365591
864	2704380	255.194435854768	0.98924731182796
864	2713701	256.014922604837	0.97872340425532
864	2714840	256.049996062049	0.98936170212766
864	2718879	256.367305008766	0.97894736842105
864	2719156	256.387498465978	0.98947368421053
864	2722140	256.660889878439	0.97916666666667
864	2722627	256.692763335651	0.98958333333333
864	2725250	256.98385409423	0.97938144329897
864	2725796	257.005007551442	0.98969072164948
864	2732424	257.596785940368	0.97959183673469
864	2732734	257.61697939758	0.98979591836735
864	2735353	257.926207721806	0.97979797979798
864	2735599	257.948001179018	0.98989898989899
864	2751629	259.610286927824	0.98
864	2751908	259.631120385036	0.99
