version 2
run CSMA-0-20170426-14:39:51-17686
attr beaconInterval 10s
attr configname CSMA
attr datetime 20170426-14:39:51
attr experiment CSMA
attr inifile simulations/omnetpp.ini
attr iterationvars "$packetLength=76B, $sendInt=2, $beaconInterval=10s, $0=10s/2, $1=3 * 10s"
attr iterationvars2 "$packetLength=76B, $sendInt=2, $beaconInterval=10s, $0=10s/2, $1=3 * 10s, $repetition=0"
attr measurement "$packetLength=76B, $sendInt=2, $beaconInterval=10s, $0=10s/2, $1=3 * 10s"
attr network multi_gateway.Net802154MultiGateway
attr packetLength 76B
attr processid 17686
attr repetition 0
attr replication #0
attr resultdir ../results
attr runnumber 0
attr seedset 0
attr sendInt 2
param **.configurator.addStaticRoutes false
param **.dumpRoutes false
param **.dumpTopology false
param **.host[*].**.gpsr.beaconInterval "${beaconInterval = 10s}"
param **.host[*].**.gpsr.maxJitter ${$beaconInterval/2}
param **.host[*].**.gpsr.neighborValidityInterval "${3 * $beaconInterval}"
param **.host[*].**.gpsr.positionByteLength "2 B"
param **.host[*].**.gpsr.routingStrategy "\"StraightestPath\""
param **.host[*].**.trafficgen.continueSendingDummyPackets true
param **.host[*].**.trafficgen.coolDownDuration 15s
param **.host[*].**.trafficgen.destAddresses "\"host[0].wrappedHost(modulepath)\""
param **.host[*].**.trafficgen.packetLength "${packetLength = 76B}"
param **.host[*].**.trafficgen.sendInterval "exponential(${sendInt=1.0..2.5 step 0.25}s)"
param **.host[*].**.trafficgen.startTime 30s
param **.host[*].**.trafficgen.warmUpDuration 190s
param **.host[*].**.wlan[*].mac.macMaxFrameRetries 7
param **.host[*].**.wlan[*].mac.queueLength 30
param **.host[*].**.wlan[*].macType "\"Ieee802154NarrowbandMac\""
param **.host[*].**.wlan[*].radio.receiver.minInterferencePower "-100 dBm"
param **.host[*].hostType "\"SimpleHost\""
param **.host[*].mobilityType "\"StaticConcentricWrappingMobility\""
param **.host[0].**.trafficgen.numPackets 0
param **.host[1..].**.trafficgen.numPackets 100
param **.numHosts 62
param **.radioMedium.rangeFilter "\"interferenceRange\""
param **.routingTable.addressType "\"modulepath\""
param **.routingTableType "\"GenericRoutingTable\""

vector 9  Net802154MultiGateway.host[0].wrappedHost.trafficgen  sentDummyPk:vector(packetBytes)  ETV
attr interpolationmode  none
attr source  sentDummyPk
attr title  "dummy packets sent, vector(packetBytes)"
vector 23  Net802154MultiGateway.host[1].wrappedHost.trafficgen  sentDummyPk:vector(packetBytes)  ETV
attr interpolationmode  none
attr source  sentDummyPk
attr title  "dummy packets sent, vector(packetBytes)"
vector 37  Net802154MultiGateway.host[2].wrappedHost.trafficgen  sentDummyPk:vector(packetBytes)  ETV
attr interpolationmode  none
attr source  sentDummyPk
attr title  "dummy packets sent, vector(packetBytes)"
vector 51  Net802154MultiGateway.host[3].wrappedHost.trafficgen  sentDummyPk:vector(packetBytes)  ETV
attr interpolationmode  none
attr source  sentDummyPk
attr title  "dummy packets sent, vector(packetBytes)"
vector 65  Net802154MultiGateway.host[4].wrappedHost.trafficgen  sentDummyPk:vector(packetBytes)  ETV
attr interpolationmode  none
attr source  sentDummyPk
attr title  "dummy packets sent, vector(packetBytes)"
vector 79  Net802154MultiGateway.host[5].wrappedHost.trafficgen  sentDummyPk:vector(packetBytes)  ETV
attr interpolationmode  none
attr source  sentDummyPk
attr title  "dummy packets sent, vector(packetBytes)"
vector 93  Net802154MultiGateway.host[6].wrappedHost.trafficgen  sentDummyPk:vector(packetBytes)  ETV
attr interpolationmode  none
attr source  sentDummyPk
attr title  "dummy packets sent, vector(packetBytes)"
vector 107  Net802154MultiGateway.host[7].wrappedHost.trafficgen  sentDummyPk:vector(packetBytes)  ETV
attr interpolationmode  none
attr source  sentDummyPk
attr title  "dummy packets sent, vector(packetBytes)"
vector 121  Net802154MultiGateway.host[8].wrappedHost.trafficgen  sentDummyPk:vector(packetBytes)  ETV
attr interpolationmode  none
attr source  sentDummyPk
attr title  "dummy packets sent, vector(packetBytes)"
vector 135  Net802154MultiGateway.host[9].wrappedHost.trafficgen  sentDummyPk:vector(packetBytes)  ETV
attr interpolationmode  none
attr source  sentDummyPk
attr title  "dummy packets sent, vector(packetBytes)"
vector 149  Net802154MultiGateway.host[10].wrappedHost.trafficgen  sentDummyPk:vector(packetBytes)  ETV
attr interpolationmode  none
attr source  sentDummyPk
attr title  "dummy packets sent, vector(packetBytes)"
vector 163  Net802154MultiGateway.host[11].wrappedHost.trafficgen  sentDummyPk:vector(packetBytes)  ETV
attr interpolationmode  none
attr source  sentDummyPk
attr title  "dummy packets sent, vector(packetBytes)"
vector 177  Net802154MultiGateway.host[12].wrappedHost.trafficgen  sentDummyPk:vector(packetBytes)  ETV
attr interpolationmode  none
attr source  sentDummyPk
attr title  "dummy packets sent, vector(packetBytes)"
vector 191  Net802154MultiGateway.host[13].wrappedHost.trafficgen  sentDummyPk:vector(packetBytes)  ETV
attr interpolationmode  none
attr source  sentDummyPk
attr title  "dummy packets sent, vector(packetBytes)"
vector 205  Net802154MultiGateway.host[14].wrappedHost.trafficgen  sentDummyPk:vector(packetBytes)  ETV
attr interpolationmode  none
attr source  sentDummyPk
attr title  "dummy packets sent, vector(packetBytes)"
vector 219  Net802154MultiGateway.host[15].wrappedHost.trafficgen  sentDummyPk:vector(packetBytes)  ETV
attr interpolationmode  none
attr source  sentDummyPk
attr title  "dummy packets sent, vector(packetBytes)"
vector 233  Net802154MultiGateway.host[16].wrappedHost.trafficgen  sentDummyPk:vector(packetBytes)  ETV
attr interpolationmode  none
attr source  sentDummyPk
attr title  "dummy packets sent, vector(packetBytes)"
vector 247  Net802154MultiGateway.host[17].wrappedHost.trafficgen  sentDummyPk:vector(packetBytes)  ETV
attr interpolationmode  none
attr source  sentDummyPk
attr title  "dummy packets sent, vector(packetBytes)"
vector 261  Net802154MultiGateway.host[18].wrappedHost.trafficgen  sentDummyPk:vector(packetBytes)  ETV
attr interpolationmode  none
attr source  sentDummyPk
attr title  "dummy packets sent, vector(packetBytes)"
vector 275  Net802154MultiGateway.host[19].wrappedHost.trafficgen  sentDummyPk:vector(packetBytes)  ETV
attr interpolationmode  none
attr source  sentDummyPk
attr title  "dummy packets sent, vector(packetBytes)"
vector 289  Net802154MultiGateway.host[20].wrappedHost.trafficgen  sentDummyPk:vector(packetBytes)  ETV
attr interpolationmode  none
attr source  sentDummyPk
attr title  "dummy packets sent, vector(packetBytes)"
vector 303  Net802154MultiGateway.host[21].wrappedHost.trafficgen  sentDummyPk:vector(packetBytes)  ETV
attr interpolationmode  none
attr source  sentDummyPk
attr title  "dummy packets sent, vector(packetBytes)"
vector 317  Net802154MultiGateway.host[22].wrappedHost.trafficgen  sentDummyPk:vector(packetBytes)  ETV
attr interpolationmode  none
attr source  sentDummyPk
attr title  "dummy packets sent, vector(packetBytes)"
vector 331  Net802154MultiGateway.host[23].wrappedHost.trafficgen  sentDummyPk:vector(packetBytes)  ETV
attr interpolationmode  none
attr source  sentDummyPk
attr title  "dummy packets sent, vector(packetBytes)"
vector 345  Net802154MultiGateway.host[24].wrappedHost.trafficgen  sentDummyPk:vector(packetBytes)  ETV
attr interpolationmode  none
attr source  sentDummyPk
attr title  "dummy packets sent, vector(packetBytes)"
vector 359  Net802154MultiGateway.host[25].wrappedHost.trafficgen  sentDummyPk:vector(packetBytes)  ETV
attr interpolationmode  none
attr source  sentDummyPk
attr title  "dummy packets sent, vector(packetBytes)"
vector 373  Net802154MultiGateway.host[26].wrappedHost.trafficgen  sentDummyPk:vector(packetBytes)  ETV
attr interpolationmode  none
attr source  sentDummyPk
attr title  "dummy packets sent, vector(packetBytes)"
vector 387  Net802154MultiGateway.host[27].wrappedHost.trafficgen  sentDummyPk:vector(packetBytes)  ETV
attr interpolationmode  none
attr source  sentDummyPk
attr title  "dummy packets sent, vector(packetBytes)"
vector 401  Net802154MultiGateway.host[28].wrappedHost.trafficgen  sentDummyPk:vector(packetBytes)  ETV
attr interpolationmode  none
attr source  sentDummyPk
attr title  "dummy packets sent, vector(packetBytes)"
vector 415  Net802154MultiGateway.host[29].wrappedHost.trafficgen  sentDummyPk:vector(packetBytes)  ETV
attr interpolationmode  none
attr source  sentDummyPk
attr title  "dummy packets sent, vector(packetBytes)"
vector 429  Net802154MultiGateway.host[30].wrappedHost.trafficgen  sentDummyPk:vector(packetBytes)  ETV
attr interpolationmode  none
attr source  sentDummyPk
attr title  "dummy packets sent, vector(packetBytes)"
vector 443  Net802154MultiGateway.host[31].wrappedHost.trafficgen  sentDummyPk:vector(packetBytes)  ETV
attr interpolationmode  none
attr source  sentDummyPk
attr title  "dummy packets sent, vector(packetBytes)"
vector 457  Net802154MultiGateway.host[32].wrappedHost.trafficgen  sentDummyPk:vector(packetBytes)  ETV
attr interpolationmode  none
attr source  sentDummyPk
attr title  "dummy packets sent, vector(packetBytes)"
vector 471  Net802154MultiGateway.host[33].wrappedHost.trafficgen  sentDummyPk:vector(packetBytes)  ETV
attr interpolationmode  none
attr source  sentDummyPk
attr title  "dummy packets sent, vector(packetBytes)"
vector 485  Net802154MultiGateway.host[34].wrappedHost.trafficgen  sentDummyPk:vector(packetBytes)  ETV
attr interpolationmode  none
attr source  sentDummyPk
attr title  "dummy packets sent, vector(packetBytes)"
vector 499  Net802154MultiGateway.host[35].wrappedHost.trafficgen  sentDummyPk:vector(packetBytes)  ETV
attr interpolationmode  none
attr source  sentDummyPk
attr title  "dummy packets sent, vector(packetBytes)"
vector 513  Net802154MultiGateway.host[36].wrappedHost.trafficgen  sentDummyPk:vector(packetBytes)  ETV
attr interpolationmode  none
attr source  sentDummyPk
attr title  "dummy packets sent, vector(packetBytes)"
vector 527  Net802154MultiGateway.host[37].wrappedHost.trafficgen  sentDummyPk:vector(packetBytes)  ETV
attr interpolationmode  none
attr source  sentDummyPk
attr title  "dummy packets sent, vector(packetBytes)"
vector 541  Net802154MultiGateway.host[38].wrappedHost.trafficgen  sentDummyPk:vector(packetBytes)  ETV
attr interpolationmode  none
attr source  sentDummyPk
attr title  "dummy packets sent, vector(packetBytes)"
vector 555  Net802154MultiGateway.host[39].wrappedHost.trafficgen  sentDummyPk:vector(packetBytes)  ETV
attr interpolationmode  none
attr source  sentDummyPk
attr title  "dummy packets sent, vector(packetBytes)"
vector 569  Net802154MultiGateway.host[40].wrappedHost.trafficgen  sentDummyPk:vector(packetBytes)  ETV
attr interpolationmode  none
attr source  sentDummyPk
attr title  "dummy packets sent, vector(packetBytes)"
vector 583  Net802154MultiGateway.host[41].wrappedHost.trafficgen  sentDummyPk:vector(packetBytes)  ETV
attr interpolationmode  none
attr source  sentDummyPk
attr title  "dummy packets sent, vector(packetBytes)"
vector 597  Net802154MultiGateway.host[42].wrappedHost.trafficgen  sentDummyPk:vector(packetBytes)  ETV
attr interpolationmode  none
attr source  sentDummyPk
attr title  "dummy packets sent, vector(packetBytes)"
vector 611  Net802154MultiGateway.host[43].wrappedHost.trafficgen  sentDummyPk:vector(packetBytes)  ETV
attr interpolationmode  none
attr source  sentDummyPk
attr title  "dummy packets sent, vector(packetBytes)"
vector 625  Net802154MultiGateway.host[44].wrappedHost.trafficgen  sentDummyPk:vector(packetBytes)  ETV
attr interpolationmode  none
attr source  sentDummyPk
attr title  "dummy packets sent, vector(packetBytes)"
vector 639  Net802154MultiGateway.host[45].wrappedHost.trafficgen  sentDummyPk:vector(packetBytes)  ETV
attr interpolationmode  none
attr source  sentDummyPk
attr title  "dummy packets sent, vector(packetBytes)"
vector 653  Net802154MultiGateway.host[46].wrappedHost.trafficgen  sentDummyPk:vector(packetBytes)  ETV
attr interpolationmode  none
attr source  sentDummyPk
attr title  "dummy packets sent, vector(packetBytes)"
vector 667  Net802154MultiGateway.host[47].wrappedHost.trafficgen  sentDummyPk:vector(packetBytes)  ETV
attr interpolationmode  none
attr source  sentDummyPk
attr title  "dummy packets sent, vector(packetBytes)"
vector 681  Net802154MultiGateway.host[48].wrappedHost.trafficgen  sentDummyPk:vector(packetBytes)  ETV
attr interpolationmode  none
attr source  sentDummyPk
attr title  "dummy packets sent, vector(packetBytes)"
vector 695  Net802154MultiGateway.host[49].wrappedHost.trafficgen  sentDummyPk:vector(packetBytes)  ETV
attr interpolationmode  none
attr source  sentDummyPk
attr title  "dummy packets sent, vector(packetBytes)"
vector 709  Net802154MultiGateway.host[50].wrappedHost.trafficgen  sentDummyPk:vector(packetBytes)  ETV
attr interpolationmode  none
attr source  sentDummyPk
attr title  "dummy packets sent, vector(packetBytes)"
vector 723  Net802154MultiGateway.host[51].wrappedHost.trafficgen  sentDummyPk:vector(packetBytes)  ETV
attr interpolationmode  none
attr source  sentDummyPk
attr title  "dummy packets sent, vector(packetBytes)"
vector 737  Net802154MultiGateway.host[52].wrappedHost.trafficgen  sentDummyPk:vector(packetBytes)  ETV
attr interpolationmode  none
attr source  sentDummyPk
attr title  "dummy packets sent, vector(packetBytes)"
vector 751  Net802154MultiGateway.host[53].wrappedHost.trafficgen  sentDummyPk:vector(packetBytes)  ETV
attr interpolationmode  none
attr source  sentDummyPk
attr title  "dummy packets sent, vector(packetBytes)"
vector 765  Net802154MultiGateway.host[54].wrappedHost.trafficgen  sentDummyPk:vector(packetBytes)  ETV
attr interpolationmode  none
attr source  sentDummyPk
attr title  "dummy packets sent, vector(packetBytes)"
vector 779  Net802154MultiGateway.host[55].wrappedHost.trafficgen  sentDummyPk:vector(packetBytes)  ETV
attr interpolationmode  none
attr source  sentDummyPk
attr title  "dummy packets sent, vector(packetBytes)"
vector 793  Net802154MultiGateway.host[56].wrappedHost.trafficgen  sentDummyPk:vector(packetBytes)  ETV
attr interpolationmode  none
attr source  sentDummyPk
attr title  "dummy packets sent, vector(packetBytes)"
vector 807  Net802154MultiGateway.host[57].wrappedHost.trafficgen  sentDummyPk:vector(packetBytes)  ETV
attr interpolationmode  none
attr source  sentDummyPk
attr title  "dummy packets sent, vector(packetBytes)"
vector 821  Net802154MultiGateway.host[58].wrappedHost.trafficgen  sentDummyPk:vector(packetBytes)  ETV
attr interpolationmode  none
attr source  sentDummyPk
attr title  "dummy packets sent, vector(packetBytes)"
vector 835  Net802154MultiGateway.host[59].wrappedHost.trafficgen  sentDummyPk:vector(packetBytes)  ETV
attr interpolationmode  none
attr source  sentDummyPk
attr title  "dummy packets sent, vector(packetBytes)"
vector 849  Net802154MultiGateway.host[60].wrappedHost.trafficgen  sentDummyPk:vector(packetBytes)  ETV
attr interpolationmode  none
attr source  sentDummyPk
attr title  "dummy packets sent, vector(packetBytes)"
vector 863  Net802154MultiGateway.host[61].wrappedHost.trafficgen  sentDummyPk:vector(packetBytes)  ETV
attr interpolationmode  none
attr source  sentDummyPk
attr title  "dummy packets sent, vector(packetBytes)"
vector 370  Net802154MultiGateway.host[26].wrappedHost.trafficgen  sentPk:vector(packetBytes)  ETV
attr interpolationmode  none
attr source  sentPk
attr title  "packets sent, vector(packetBytes)"
vector 374  Net802154MultiGateway.host[26].wrappedHost.trafficgen  PRR:vector  ETV
attr interpolationmode  none
attr source  count(sinkRcvdPk)/count(sentPk)
attr title  "PRR, vector"
vector 372  Net802154MultiGateway.host[26].wrappedHost.trafficgen  sinkRcvdPk:vector(packetBytes)  ETV
attr interpolationmode  none
attr source  sinkRcvdPk
attr title  "own packets received by sink, vector(packetBytes)"
vector 5  Net802154MultiGateway.host[0].wrappedHost.trafficgen  rcvdPk:vector(packetBytes)  ETV
attr interpolationmode  none
attr source  rcvdPk
attr title  "packets received, vector(packetBytes)"
vector 7  Net802154MultiGateway.host[0].wrappedHost.trafficgen  endToEndDelay:vector  ETV
attr interpolationmode  none
attr source  messageAge(rcvdPk)
attr title  "end-to-end delay, vector"
attr unit  s
vector 104  Net802154MultiGateway.host[7].wrappedHost.trafficgen  sentPk:vector(packetBytes)  ETV
attr interpolationmode  none
attr source  sentPk
attr title  "packets sent, vector(packetBytes)"
vector 108  Net802154MultiGateway.host[7].wrappedHost.trafficgen  PRR:vector  ETV
attr interpolationmode  none
attr source  count(sinkRcvdPk)/count(sentPk)
attr title  "PRR, vector"
vector 106  Net802154MultiGateway.host[7].wrappedHost.trafficgen  sinkRcvdPk:vector(packetBytes)  ETV
attr interpolationmode  none
attr source  sinkRcvdPk
attr title  "own packets received by sink, vector(packetBytes)"
vector 692  Net802154MultiGateway.host[49].wrappedHost.trafficgen  sentPk:vector(packetBytes)  ETV
attr interpolationmode  none
attr source  sentPk
attr title  "packets sent, vector(packetBytes)"
vector 696  Net802154MultiGateway.host[49].wrappedHost.trafficgen  PRR:vector  ETV
attr interpolationmode  none
attr source  count(sinkRcvdPk)/count(sentPk)
attr title  "PRR, vector"
vector 776  Net802154MultiGateway.host[55].wrappedHost.trafficgen  sentPk:vector(packetBytes)  ETV
attr interpolationmode  none
attr source  sentPk
attr title  "packets sent, vector(packetBytes)"
vector 780  Net802154MultiGateway.host[55].wrappedHost.trafficgen  PRR:vector  ETV
attr interpolationmode  none
attr source  count(sinkRcvdPk)/count(sentPk)
attr title  "PRR, vector"
vector 694  Net802154MultiGateway.host[49].wrappedHost.trafficgen  sinkRcvdPk:vector(packetBytes)  ETV
attr interpolationmode  none
attr source  sinkRcvdPk
attr title  "own packets received by sink, vector(packetBytes)"
vector 216  Net802154MultiGateway.host[15].wrappedHost.trafficgen  sentPk:vector(packetBytes)  ETV
attr interpolationmode  none
attr source  sentPk
attr title  "packets sent, vector(packetBytes)"
vector 220  Net802154MultiGateway.host[15].wrappedHost.trafficgen  PRR:vector  ETV
attr interpolationmode  none
attr source  count(sinkRcvdPk)/count(sentPk)
attr title  "PRR, vector"
vector 218  Net802154MultiGateway.host[15].wrappedHost.trafficgen  sinkRcvdPk:vector(packetBytes)  ETV
attr interpolationmode  none
attr source  sinkRcvdPk
attr title  "own packets received by sink, vector(packetBytes)"
vector 778  Net802154MultiGateway.host[55].wrappedHost.trafficgen  sinkRcvdPk:vector(packetBytes)  ETV
attr interpolationmode  none
attr source  sinkRcvdPk
attr title  "own packets received by sink, vector(packetBytes)"
vector 818  Net802154MultiGateway.host[58].wrappedHost.trafficgen  sentPk:vector(packetBytes)  ETV
attr interpolationmode  none
attr source  sentPk
attr title  "packets sent, vector(packetBytes)"
vector 822  Net802154MultiGateway.host[58].wrappedHost.trafficgen  PRR:vector  ETV
attr interpolationmode  none
attr source  count(sinkRcvdPk)/count(sentPk)
attr title  "PRR, vector"
vector 820  Net802154MultiGateway.host[58].wrappedHost.trafficgen  sinkRcvdPk:vector(packetBytes)  ETV
attr interpolationmode  none
attr source  sinkRcvdPk
attr title  "own packets received by sink, vector(packetBytes)"
vector 272  Net802154MultiGateway.host[19].wrappedHost.trafficgen  sentPk:vector(packetBytes)  ETV
attr interpolationmode  none
attr source  sentPk
attr title  "packets sent, vector(packetBytes)"
vector 276  Net802154MultiGateway.host[19].wrappedHost.trafficgen  PRR:vector  ETV
attr interpolationmode  none
attr source  count(sinkRcvdPk)/count(sentPk)
attr title  "PRR, vector"
vector 274  Net802154MultiGateway.host[19].wrappedHost.trafficgen  sinkRcvdPk:vector(packetBytes)  ETV
attr interpolationmode  none
attr source  sinkRcvdPk
attr title  "own packets received by sink, vector(packetBytes)"
vector 412  Net802154MultiGateway.host[29].wrappedHost.trafficgen  sentPk:vector(packetBytes)  ETV
attr interpolationmode  none
attr source  sentPk
attr title  "packets sent, vector(packetBytes)"
vector 416  Net802154MultiGateway.host[29].wrappedHost.trafficgen  PRR:vector  ETV
attr interpolationmode  none
attr source  count(sinkRcvdPk)/count(sentPk)
attr title  "PRR, vector"
vector 414  Net802154MultiGateway.host[29].wrappedHost.trafficgen  sinkRcvdPk:vector(packetBytes)  ETV
attr interpolationmode  none
attr source  sinkRcvdPk
attr title  "own packets received by sink, vector(packetBytes)"
vector 20  Net802154MultiGateway.host[1].wrappedHost.trafficgen  sentPk:vector(packetBytes)  ETV
attr interpolationmode  none
attr source  sentPk
attr title  "packets sent, vector(packetBytes)"
vector 24  Net802154MultiGateway.host[1].wrappedHost.trafficgen  PRR:vector  ETV
attr interpolationmode  none
attr source  count(sinkRcvdPk)/count(sentPk)
attr title  "PRR, vector"
vector 146  Net802154MultiGateway.host[10].wrappedHost.trafficgen  sentPk:vector(packetBytes)  ETV
attr interpolationmode  none
attr source  sentPk
attr title  "packets sent, vector(packetBytes)"
vector 150  Net802154MultiGateway.host[10].wrappedHost.trafficgen  PRR:vector  ETV
attr interpolationmode  none
attr source  count(sinkRcvdPk)/count(sentPk)
attr title  "PRR, vector"
vector 22  Net802154MultiGateway.host[1].wrappedHost.trafficgen  sinkRcvdPk:vector(packetBytes)  ETV
attr interpolationmode  none
attr source  sinkRcvdPk
attr title  "own packets received by sink, vector(packetBytes)"
vector 230  Net802154MultiGateway.host[16].wrappedHost.trafficgen  sentPk:vector(packetBytes)  ETV
attr interpolationmode  none
attr source  sentPk
attr title  "packets sent, vector(packetBytes)"
vector 234  Net802154MultiGateway.host[16].wrappedHost.trafficgen  PRR:vector  ETV
attr interpolationmode  none
attr source  count(sinkRcvdPk)/count(sentPk)
attr title  "PRR, vector"
vector 148  Net802154MultiGateway.host[10].wrappedHost.trafficgen  sinkRcvdPk:vector(packetBytes)  ETV
attr interpolationmode  none
attr source  sinkRcvdPk
attr title  "own packets received by sink, vector(packetBytes)"
vector 232  Net802154MultiGateway.host[16].wrappedHost.trafficgen  sinkRcvdPk:vector(packetBytes)  ETV
attr interpolationmode  none
attr source  sinkRcvdPk
attr title  "own packets received by sink, vector(packetBytes)"
vector 62  Net802154MultiGateway.host[4].wrappedHost.trafficgen  sentPk:vector(packetBytes)  ETV
attr interpolationmode  none
attr source  sentPk
attr title  "packets sent, vector(packetBytes)"
vector 66  Net802154MultiGateway.host[4].wrappedHost.trafficgen  PRR:vector  ETV
attr interpolationmode  none
attr source  count(sinkRcvdPk)/count(sentPk)
attr title  "PRR, vector"
vector 64  Net802154MultiGateway.host[4].wrappedHost.trafficgen  sinkRcvdPk:vector(packetBytes)  ETV
attr interpolationmode  none
attr source  sinkRcvdPk
attr title  "own packets received by sink, vector(packetBytes)"
vector 706  Net802154MultiGateway.host[50].wrappedHost.trafficgen  sentPk:vector(packetBytes)  ETV
attr interpolationmode  none
attr source  sentPk
attr title  "packets sent, vector(packetBytes)"
vector 710  Net802154MultiGateway.host[50].wrappedHost.trafficgen  PRR:vector  ETV
attr interpolationmode  none
attr source  count(sinkRcvdPk)/count(sentPk)
attr title  "PRR, vector"
vector 48  Net802154MultiGateway.host[3].wrappedHost.trafficgen  sentPk:vector(packetBytes)  ETV
attr interpolationmode  none
attr source  sentPk
attr title  "packets sent, vector(packetBytes)"
vector 52  Net802154MultiGateway.host[3].wrappedHost.trafficgen  PRR:vector  ETV
attr interpolationmode  none
attr source  count(sinkRcvdPk)/count(sentPk)
attr title  "PRR, vector"
vector 50  Net802154MultiGateway.host[3].wrappedHost.trafficgen  sinkRcvdPk:vector(packetBytes)  ETV
attr interpolationmode  none
attr source  sinkRcvdPk
attr title  "own packets received by sink, vector(packetBytes)"
vector 160  Net802154MultiGateway.host[11].wrappedHost.trafficgen  sentPk:vector(packetBytes)  ETV
attr interpolationmode  none
attr source  sentPk
attr title  "packets sent, vector(packetBytes)"
vector 164  Net802154MultiGateway.host[11].wrappedHost.trafficgen  PRR:vector  ETV
attr interpolationmode  none
attr source  count(sinkRcvdPk)/count(sentPk)
attr title  "PRR, vector"
vector 708  Net802154MultiGateway.host[50].wrappedHost.trafficgen  sinkRcvdPk:vector(packetBytes)  ETV
attr interpolationmode  none
attr source  sinkRcvdPk
attr title  "own packets received by sink, vector(packetBytes)"
vector 162  Net802154MultiGateway.host[11].wrappedHost.trafficgen  sinkRcvdPk:vector(packetBytes)  ETV
attr interpolationmode  none
attr source  sinkRcvdPk
attr title  "own packets received by sink, vector(packetBytes)"
vector 118  Net802154MultiGateway.host[8].wrappedHost.trafficgen  sentPk:vector(packetBytes)  ETV
attr interpolationmode  none
attr source  sentPk
attr title  "packets sent, vector(packetBytes)"
vector 122  Net802154MultiGateway.host[8].wrappedHost.trafficgen  PRR:vector  ETV
attr interpolationmode  none
attr source  count(sinkRcvdPk)/count(sentPk)
attr title  "PRR, vector"
vector 426  Net802154MultiGateway.host[30].wrappedHost.trafficgen  sentPk:vector(packetBytes)  ETV
attr interpolationmode  none
attr source  sentPk
attr title  "packets sent, vector(packetBytes)"
vector 430  Net802154MultiGateway.host[30].wrappedHost.trafficgen  PRR:vector  ETV
attr interpolationmode  none
attr source  count(sinkRcvdPk)/count(sentPk)
attr title  "PRR, vector"
vector 120  Net802154MultiGateway.host[8].wrappedHost.trafficgen  sinkRcvdPk:vector(packetBytes)  ETV
attr interpolationmode  none
attr source  sinkRcvdPk
attr title  "own packets received by sink, vector(packetBytes)"
vector 258  Net802154MultiGateway.host[18].wrappedHost.trafficgen  sentPk:vector(packetBytes)  ETV
attr interpolationmode  none
attr source  sentPk
attr title  "packets sent, vector(packetBytes)"
vector 262  Net802154MultiGateway.host[18].wrappedHost.trafficgen  PRR:vector  ETV
attr interpolationmode  none
attr source  count(sinkRcvdPk)/count(sentPk)
attr title  "PRR, vector"
vector 428  Net802154MultiGateway.host[30].wrappedHost.trafficgen  sinkRcvdPk:vector(packetBytes)  ETV
attr interpolationmode  none
attr source  sinkRcvdPk
attr title  "own packets received by sink, vector(packetBytes)"
vector 260  Net802154MultiGateway.host[18].wrappedHost.trafficgen  sinkRcvdPk:vector(packetBytes)  ETV
attr interpolationmode  none
attr source  sinkRcvdPk
attr title  "own packets received by sink, vector(packetBytes)"
vector 482  Net802154MultiGateway.host[34].wrappedHost.trafficgen  sentPk:vector(packetBytes)  ETV
attr interpolationmode  none
attr source  sentPk
attr title  "packets sent, vector(packetBytes)"
vector 486  Net802154MultiGateway.host[34].wrappedHost.trafficgen  PRR:vector  ETV
attr interpolationmode  none
attr source  count(sinkRcvdPk)/count(sentPk)
attr title  "PRR, vector"
vector 484  Net802154MultiGateway.host[34].wrappedHost.trafficgen  sinkRcvdPk:vector(packetBytes)  ETV
attr interpolationmode  none
attr source  sinkRcvdPk
attr title  "own packets received by sink, vector(packetBytes)"
vector 860  Net802154MultiGateway.host[61].wrappedHost.trafficgen  sentPk:vector(packetBytes)  ETV
attr interpolationmode  none
attr source  sentPk
attr title  "packets sent, vector(packetBytes)"
vector 864  Net802154MultiGateway.host[61].wrappedHost.trafficgen  PRR:vector  ETV
attr interpolationmode  none
attr source  count(sinkRcvdPk)/count(sentPk)
attr title  "PRR, vector"
vector 650  Net802154MultiGateway.host[46].wrappedHost.trafficgen  sentPk:vector(packetBytes)  ETV
attr interpolationmode  none
attr source  sentPk
attr title  "packets sent, vector(packetBytes)"
vector 654  Net802154MultiGateway.host[46].wrappedHost.trafficgen  PRR:vector  ETV
attr interpolationmode  none
attr source  count(sinkRcvdPk)/count(sentPk)
attr title  "PRR, vector"
vector 862  Net802154MultiGateway.host[61].wrappedHost.trafficgen  sinkRcvdPk:vector(packetBytes)  ETV
attr interpolationmode  none
attr source  sinkRcvdPk
attr title  "own packets received by sink, vector(packetBytes)"
vector 652  Net802154MultiGateway.host[46].wrappedHost.trafficgen  sinkRcvdPk:vector(packetBytes)  ETV
attr interpolationmode  none
attr source  sinkRcvdPk
attr title  "own packets received by sink, vector(packetBytes)"
vector 174  Net802154MultiGateway.host[12].wrappedHost.trafficgen  sentPk:vector(packetBytes)  ETV
attr interpolationmode  none
attr source  sentPk
attr title  "packets sent, vector(packetBytes)"
vector 178  Net802154MultiGateway.host[12].wrappedHost.trafficgen  PRR:vector  ETV
attr interpolationmode  none
attr source  count(sinkRcvdPk)/count(sentPk)
attr title  "PRR, vector"
vector 384  Net802154MultiGateway.host[27].wrappedHost.trafficgen  sentPk:vector(packetBytes)  ETV
attr interpolationmode  none
attr source  sentPk
attr title  "packets sent, vector(packetBytes)"
vector 388  Net802154MultiGateway.host[27].wrappedHost.trafficgen  PRR:vector  ETV
attr interpolationmode  none
attr source  count(sinkRcvdPk)/count(sentPk)
attr title  "PRR, vector"
vector 176  Net802154MultiGateway.host[12].wrappedHost.trafficgen  sinkRcvdPk:vector(packetBytes)  ETV
attr interpolationmode  none
attr source  sinkRcvdPk
attr title  "own packets received by sink, vector(packetBytes)"
vector 286  Net802154MultiGateway.host[20].wrappedHost.trafficgen  sentPk:vector(packetBytes)  ETV
attr interpolationmode  none
attr source  sentPk
attr title  "packets sent, vector(packetBytes)"
vector 290  Net802154MultiGateway.host[20].wrappedHost.trafficgen  PRR:vector  ETV
attr interpolationmode  none
attr source  count(sinkRcvdPk)/count(sentPk)
attr title  "PRR, vector"
vector 386  Net802154MultiGateway.host[27].wrappedHost.trafficgen  sinkRcvdPk:vector(packetBytes)  ETV
attr interpolationmode  none
attr source  sinkRcvdPk
attr title  "own packets received by sink, vector(packetBytes)"
vector 288  Net802154MultiGateway.host[20].wrappedHost.trafficgen  sinkRcvdPk:vector(packetBytes)  ETV
attr interpolationmode  none
attr source  sinkRcvdPk
attr title  "own packets received by sink, vector(packetBytes)"
vector 804  Net802154MultiGateway.host[57].wrappedHost.trafficgen  sentPk:vector(packetBytes)  ETV
attr interpolationmode  none
attr source  sentPk
attr title  "packets sent, vector(packetBytes)"
vector 808  Net802154MultiGateway.host[57].wrappedHost.trafficgen  PRR:vector  ETV
attr interpolationmode  none
attr source  count(sinkRcvdPk)/count(sentPk)
attr title  "PRR, vector"
vector 806  Net802154MultiGateway.host[57].wrappedHost.trafficgen  sinkRcvdPk:vector(packetBytes)  ETV
attr interpolationmode  none
attr source  sinkRcvdPk
attr title  "own packets received by sink, vector(packetBytes)"
vector 524  Net802154MultiGateway.host[37].wrappedHost.trafficgen  sentPk:vector(packetBytes)  ETV
attr interpolationmode  none
attr source  sentPk
attr title  "packets sent, vector(packetBytes)"
vector 528  Net802154MultiGateway.host[37].wrappedHost.trafficgen  PRR:vector  ETV
attr interpolationmode  none
attr source  count(sinkRcvdPk)/count(sentPk)
attr title  "PRR, vector"
vector 526  Net802154MultiGateway.host[37].wrappedHost.trafficgen  sinkRcvdPk:vector(packetBytes)  ETV
attr interpolationmode  none
attr source  sinkRcvdPk
attr title  "own packets received by sink, vector(packetBytes)"
vector 510  Net802154MultiGateway.host[36].wrappedHost.trafficgen  sentPk:vector(packetBytes)  ETV
attr interpolationmode  none
attr source  sentPk
attr title  "packets sent, vector(packetBytes)"
vector 514  Net802154MultiGateway.host[36].wrappedHost.trafficgen  PRR:vector  ETV
attr interpolationmode  none
attr source  count(sinkRcvdPk)/count(sentPk)
attr title  "PRR, vector"
vector 512  Net802154MultiGateway.host[36].wrappedHost.trafficgen  sinkRcvdPk:vector(packetBytes)  ETV
attr interpolationmode  none
attr source  sinkRcvdPk
attr title  "own packets received by sink, vector(packetBytes)"
vector 846  Net802154MultiGateway.host[60].wrappedHost.trafficgen  sentPk:vector(packetBytes)  ETV
attr interpolationmode  none
attr source  sentPk
attr title  "packets sent, vector(packetBytes)"
vector 850  Net802154MultiGateway.host[60].wrappedHost.trafficgen  PRR:vector  ETV
attr interpolationmode  none
attr source  count(sinkRcvdPk)/count(sentPk)
attr title  "PRR, vector"
vector 848  Net802154MultiGateway.host[60].wrappedHost.trafficgen  sinkRcvdPk:vector(packetBytes)  ETV
attr interpolationmode  none
attr source  sinkRcvdPk
attr title  "own packets received by sink, vector(packetBytes)"
vector 720  Net802154MultiGateway.host[51].wrappedHost.trafficgen  sentPk:vector(packetBytes)  ETV
attr interpolationmode  none
attr source  sentPk
attr title  "packets sent, vector(packetBytes)"
vector 724  Net802154MultiGateway.host[51].wrappedHost.trafficgen  PRR:vector  ETV
attr interpolationmode  none
attr source  count(sinkRcvdPk)/count(sentPk)
attr title  "PRR, vector"
vector 454  Net802154MultiGateway.host[32].wrappedHost.trafficgen  sentPk:vector(packetBytes)  ETV
attr interpolationmode  none
attr source  sentPk
attr title  "packets sent, vector(packetBytes)"
vector 458  Net802154MultiGateway.host[32].wrappedHost.trafficgen  PRR:vector  ETV
attr interpolationmode  none
attr source  count(sinkRcvdPk)/count(sentPk)
attr title  "PRR, vector"
vector 722  Net802154MultiGateway.host[51].wrappedHost.trafficgen  sinkRcvdPk:vector(packetBytes)  ETV
attr interpolationmode  none
attr source  sinkRcvdPk
attr title  "own packets received by sink, vector(packetBytes)"
vector 456  Net802154MultiGateway.host[32].wrappedHost.trafficgen  sinkRcvdPk:vector(packetBytes)  ETV
attr interpolationmode  none
attr source  sinkRcvdPk
attr title  "own packets received by sink, vector(packetBytes)"
vector 76  Net802154MultiGateway.host[5].wrappedHost.trafficgen  sentPk:vector(packetBytes)  ETV
attr interpolationmode  none
attr source  sentPk
attr title  "packets sent, vector(packetBytes)"
vector 80  Net802154MultiGateway.host[5].wrappedHost.trafficgen  PRR:vector  ETV
attr interpolationmode  none
attr source  count(sinkRcvdPk)/count(sentPk)
attr title  "PRR, vector"
vector 78  Net802154MultiGateway.host[5].wrappedHost.trafficgen  sinkRcvdPk:vector(packetBytes)  ETV
attr interpolationmode  none
attr source  sinkRcvdPk
attr title  "own packets received by sink, vector(packetBytes)"
vector 202  Net802154MultiGateway.host[14].wrappedHost.trafficgen  sentPk:vector(packetBytes)  ETV
attr interpolationmode  none
attr source  sentPk
attr title  "packets sent, vector(packetBytes)"
vector 206  Net802154MultiGateway.host[14].wrappedHost.trafficgen  PRR:vector  ETV
attr interpolationmode  none
attr source  count(sinkRcvdPk)/count(sentPk)
attr title  "PRR, vector"
vector 204  Net802154MultiGateway.host[14].wrappedHost.trafficgen  sinkRcvdPk:vector(packetBytes)  ETV
attr interpolationmode  none
attr source  sinkRcvdPk
attr title  "own packets received by sink, vector(packetBytes)"
vector 90  Net802154MultiGateway.host[6].wrappedHost.trafficgen  sentPk:vector(packetBytes)  ETV
attr interpolationmode  none
attr source  sentPk
attr title  "packets sent, vector(packetBytes)"
vector 94  Net802154MultiGateway.host[6].wrappedHost.trafficgen  PRR:vector  ETV
attr interpolationmode  none
attr source  count(sinkRcvdPk)/count(sentPk)
attr title  "PRR, vector"
vector 580  Net802154MultiGateway.host[41].wrappedHost.trafficgen  sentPk:vector(packetBytes)  ETV
attr interpolationmode  none
attr source  sentPk
attr title  "packets sent, vector(packetBytes)"
vector 584  Net802154MultiGateway.host[41].wrappedHost.trafficgen  PRR:vector  ETV
attr interpolationmode  none
attr source  count(sinkRcvdPk)/count(sentPk)
attr title  "PRR, vector"
vector 92  Net802154MultiGateway.host[6].wrappedHost.trafficgen  sinkRcvdPk:vector(packetBytes)  ETV
attr interpolationmode  none
attr source  sinkRcvdPk
attr title  "own packets received by sink, vector(packetBytes)"
vector 582  Net802154MultiGateway.host[41].wrappedHost.trafficgen  sinkRcvdPk:vector(packetBytes)  ETV
attr interpolationmode  none
attr source  sinkRcvdPk
attr title  "own packets received by sink, vector(packetBytes)"
vector 34  Net802154MultiGateway.host[2].wrappedHost.trafficgen  sentPk:vector(packetBytes)  ETV
attr interpolationmode  none
attr source  sentPk
attr title  "packets sent, vector(packetBytes)"
vector 38  Net802154MultiGateway.host[2].wrappedHost.trafficgen  PRR:vector  ETV
attr interpolationmode  none
attr source  count(sinkRcvdPk)/count(sentPk)
attr title  "PRR, vector"
vector 36  Net802154MultiGateway.host[2].wrappedHost.trafficgen  sinkRcvdPk:vector(packetBytes)  ETV
attr interpolationmode  none
attr source  sinkRcvdPk
attr title  "own packets received by sink, vector(packetBytes)"
vector 300  Net802154MultiGateway.host[21].wrappedHost.trafficgen  sentPk:vector(packetBytes)  ETV
attr interpolationmode  none
attr source  sentPk
attr title  "packets sent, vector(packetBytes)"
vector 304  Net802154MultiGateway.host[21].wrappedHost.trafficgen  PRR:vector  ETV
attr interpolationmode  none
attr source  count(sinkRcvdPk)/count(sentPk)
attr title  "PRR, vector"
vector 790  Net802154MultiGateway.host[56].wrappedHost.trafficgen  sentPk:vector(packetBytes)  ETV
attr interpolationmode  none
attr source  sentPk
attr title  "packets sent, vector(packetBytes)"
vector 794  Net802154MultiGateway.host[56].wrappedHost.trafficgen  PRR:vector  ETV
attr interpolationmode  none
attr source  count(sinkRcvdPk)/count(sentPk)
attr title  "PRR, vector"
vector 302  Net802154MultiGateway.host[21].wrappedHost.trafficgen  sinkRcvdPk:vector(packetBytes)  ETV
attr interpolationmode  none
attr source  sinkRcvdPk
attr title  "own packets received by sink, vector(packetBytes)"
vector 792  Net802154MultiGateway.host[56].wrappedHost.trafficgen  sinkRcvdPk:vector(packetBytes)  ETV
attr interpolationmode  none
attr source  sinkRcvdPk
attr title  "own packets received by sink, vector(packetBytes)"
vector 398  Net802154MultiGateway.host[28].wrappedHost.trafficgen  sentPk:vector(packetBytes)  ETV
attr interpolationmode  none
attr source  sentPk
attr title  "packets sent, vector(packetBytes)"
vector 402  Net802154MultiGateway.host[28].wrappedHost.trafficgen  PRR:vector  ETV
attr interpolationmode  none
attr source  count(sinkRcvdPk)/count(sentPk)
attr title  "PRR, vector"
vector 400  Net802154MultiGateway.host[28].wrappedHost.trafficgen  sinkRcvdPk:vector(packetBytes)  ETV
attr interpolationmode  none
attr source  sinkRcvdPk
attr title  "own packets received by sink, vector(packetBytes)"
vector 440  Net802154MultiGateway.host[31].wrappedHost.trafficgen  sentPk:vector(packetBytes)  ETV
attr interpolationmode  none
attr source  sentPk
attr title  "packets sent, vector(packetBytes)"
vector 444  Net802154MultiGateway.host[31].wrappedHost.trafficgen  PRR:vector  ETV
attr interpolationmode  none
attr source  count(sinkRcvdPk)/count(sentPk)
attr title  "PRR, vector"
vector 442  Net802154MultiGateway.host[31].wrappedHost.trafficgen  sinkRcvdPk:vector(packetBytes)  ETV
attr interpolationmode  none
attr source  sinkRcvdPk
attr title  "own packets received by sink, vector(packetBytes)"
vector 566  Net802154MultiGateway.host[40].wrappedHost.trafficgen  sentPk:vector(packetBytes)  ETV
attr interpolationmode  none
attr source  sentPk
attr title  "packets sent, vector(packetBytes)"
vector 570  Net802154MultiGateway.host[40].wrappedHost.trafficgen  PRR:vector  ETV
attr interpolationmode  none
attr source  count(sinkRcvdPk)/count(sentPk)
attr title  "PRR, vector"
vector 244  Net802154MultiGateway.host[17].wrappedHost.trafficgen  sentPk:vector(packetBytes)  ETV
attr interpolationmode  none
attr source  sentPk
attr title  "packets sent, vector(packetBytes)"
vector 248  Net802154MultiGateway.host[17].wrappedHost.trafficgen  PRR:vector  ETV
attr interpolationmode  none
attr source  count(sinkRcvdPk)/count(sentPk)
attr title  "PRR, vector"
vector 246  Net802154MultiGateway.host[17].wrappedHost.trafficgen  sinkRcvdPk:vector(packetBytes)  ETV
attr interpolationmode  none
attr source  sinkRcvdPk
attr title  "own packets received by sink, vector(packetBytes)"
vector 568  Net802154MultiGateway.host[40].wrappedHost.trafficgen  sinkRcvdPk:vector(packetBytes)  ETV
attr interpolationmode  none
attr source  sinkRcvdPk
attr title  "own packets received by sink, vector(packetBytes)"
vector 468  Net802154MultiGateway.host[33].wrappedHost.trafficgen  sentPk:vector(packetBytes)  ETV
attr interpolationmode  none
attr source  sentPk
attr title  "packets sent, vector(packetBytes)"
vector 472  Net802154MultiGateway.host[33].wrappedHost.trafficgen  PRR:vector  ETV
attr interpolationmode  none
attr source  count(sinkRcvdPk)/count(sentPk)
attr title  "PRR, vector"
vector 470  Net802154MultiGateway.host[33].wrappedHost.trafficgen  sinkRcvdPk:vector(packetBytes)  ETV
attr interpolationmode  none
attr source  sinkRcvdPk
attr title  "own packets received by sink, vector(packetBytes)"
vector 762  Net802154MultiGateway.host[54].wrappedHost.trafficgen  sentPk:vector(packetBytes)  ETV
attr interpolationmode  none
attr source  sentPk
attr title  "packets sent, vector(packetBytes)"
vector 766  Net802154MultiGateway.host[54].wrappedHost.trafficgen  PRR:vector  ETV
attr interpolationmode  none
attr source  count(sinkRcvdPk)/count(sentPk)
attr title  "PRR, vector"
vector 764  Net802154MultiGateway.host[54].wrappedHost.trafficgen  sinkRcvdPk:vector(packetBytes)  ETV
attr interpolationmode  none
attr source  sinkRcvdPk
attr title  "own packets received by sink, vector(packetBytes)"
vector 734  Net802154MultiGateway.host[52].wrappedHost.trafficgen  sentPk:vector(packetBytes)  ETV
attr interpolationmode  none
attr source  sentPk
attr title  "packets sent, vector(packetBytes)"
vector 738  Net802154MultiGateway.host[52].wrappedHost.trafficgen  PRR:vector  ETV
attr interpolationmode  none
attr source  count(sinkRcvdPk)/count(sentPk)
attr title  "PRR, vector"
vector 736  Net802154MultiGateway.host[52].wrappedHost.trafficgen  sinkRcvdPk:vector(packetBytes)  ETV
attr interpolationmode  none
attr source  sinkRcvdPk
attr title  "own packets received by sink, vector(packetBytes)"
vector 188  Net802154MultiGateway.host[13].wrappedHost.trafficgen  sentPk:vector(packetBytes)  ETV
attr interpolationmode  none
attr source  sentPk
attr title  "packets sent, vector(packetBytes)"
vector 192  Net802154MultiGateway.host[13].wrappedHost.trafficgen  PRR:vector  ETV
attr interpolationmode  none
attr source  count(sinkRcvdPk)/count(sentPk)
attr title  "PRR, vector"
vector 356  Net802154MultiGateway.host[25].wrappedHost.trafficgen  sentPk:vector(packetBytes)  ETV
attr interpolationmode  none
attr source  sentPk
attr title  "packets sent, vector(packetBytes)"
vector 360  Net802154MultiGateway.host[25].wrappedHost.trafficgen  PRR:vector  ETV
attr interpolationmode  none
attr source  count(sinkRcvdPk)/count(sentPk)
attr title  "PRR, vector"
vector 190  Net802154MultiGateway.host[13].wrappedHost.trafficgen  sinkRcvdPk:vector(packetBytes)  ETV
attr interpolationmode  none
attr source  sinkRcvdPk
attr title  "own packets received by sink, vector(packetBytes)"
vector 678  Net802154MultiGateway.host[48].wrappedHost.trafficgen  sentPk:vector(packetBytes)  ETV
attr interpolationmode  none
attr source  sentPk
attr title  "packets sent, vector(packetBytes)"
vector 682  Net802154MultiGateway.host[48].wrappedHost.trafficgen  PRR:vector  ETV
attr interpolationmode  none
attr source  count(sinkRcvdPk)/count(sentPk)
attr title  "PRR, vector"
vector 358  Net802154MultiGateway.host[25].wrappedHost.trafficgen  sinkRcvdPk:vector(packetBytes)  ETV
attr interpolationmode  none
attr source  sinkRcvdPk
attr title  "own packets received by sink, vector(packetBytes)"
vector 680  Net802154MultiGateway.host[48].wrappedHost.trafficgen  sinkRcvdPk:vector(packetBytes)  ETV
attr interpolationmode  none
attr source  sinkRcvdPk
attr title  "own packets received by sink, vector(packetBytes)"
vector 664  Net802154MultiGateway.host[47].wrappedHost.trafficgen  sentPk:vector(packetBytes)  ETV
attr interpolationmode  none
attr source  sentPk
attr title  "packets sent, vector(packetBytes)"
vector 668  Net802154MultiGateway.host[47].wrappedHost.trafficgen  PRR:vector  ETV
attr interpolationmode  none
attr source  count(sinkRcvdPk)/count(sentPk)
attr title  "PRR, vector"
vector 666  Net802154MultiGateway.host[47].wrappedHost.trafficgen  sinkRcvdPk:vector(packetBytes)  ETV
attr interpolationmode  none
attr source  sinkRcvdPk
attr title  "own packets received by sink, vector(packetBytes)"
vector 328  Net802154MultiGateway.host[23].wrappedHost.trafficgen  sentPk:vector(packetBytes)  ETV
attr interpolationmode  none
attr source  sentPk
attr title  "packets sent, vector(packetBytes)"
vector 332  Net802154MultiGateway.host[23].wrappedHost.trafficgen  PRR:vector  ETV
attr interpolationmode  none
attr source  count(sinkRcvdPk)/count(sentPk)
attr title  "PRR, vector"
vector 330  Net802154MultiGateway.host[23].wrappedHost.trafficgen  sinkRcvdPk:vector(packetBytes)  ETV
attr interpolationmode  none
attr source  sinkRcvdPk
attr title  "own packets received by sink, vector(packetBytes)"
vector 342  Net802154MultiGateway.host[24].wrappedHost.trafficgen  sentPk:vector(packetBytes)  ETV
attr interpolationmode  none
attr source  sentPk
attr title  "packets sent, vector(packetBytes)"
vector 346  Net802154MultiGateway.host[24].wrappedHost.trafficgen  PRR:vector  ETV
attr interpolationmode  none
attr source  count(sinkRcvdPk)/count(sentPk)
attr title  "PRR, vector"
vector 344  Net802154MultiGateway.host[24].wrappedHost.trafficgen  sinkRcvdPk:vector(packetBytes)  ETV
attr interpolationmode  none
attr source  sinkRcvdPk
attr title  "own packets received by sink, vector(packetBytes)"
vector 622  Net802154MultiGateway.host[44].wrappedHost.trafficgen  sentPk:vector(packetBytes)  ETV
attr interpolationmode  none
attr source  sentPk
attr title  "packets sent, vector(packetBytes)"
vector 626  Net802154MultiGateway.host[44].wrappedHost.trafficgen  PRR:vector  ETV
attr interpolationmode  none
attr source  count(sinkRcvdPk)/count(sentPk)
attr title  "PRR, vector"
vector 624  Net802154MultiGateway.host[44].wrappedHost.trafficgen  sinkRcvdPk:vector(packetBytes)  ETV
attr interpolationmode  none
attr source  sinkRcvdPk
attr title  "own packets received by sink, vector(packetBytes)"
vector 314  Net802154MultiGateway.host[22].wrappedHost.trafficgen  sentPk:vector(packetBytes)  ETV
attr interpolationmode  none
attr source  sentPk
attr title  "packets sent, vector(packetBytes)"
vector 318  Net802154MultiGateway.host[22].wrappedHost.trafficgen  PRR:vector  ETV
attr interpolationmode  none
attr source  count(sinkRcvdPk)/count(sentPk)
attr title  "PRR, vector"
vector 316  Net802154MultiGateway.host[22].wrappedHost.trafficgen  sinkRcvdPk:vector(packetBytes)  ETV
attr interpolationmode  none
attr source  sinkRcvdPk
attr title  "own packets received by sink, vector(packetBytes)"
vector 748  Net802154MultiGateway.host[53].wrappedHost.trafficgen  sentPk:vector(packetBytes)  ETV
attr interpolationmode  none
attr source  sentPk
attr title  "packets sent, vector(packetBytes)"
vector 752  Net802154MultiGateway.host[53].wrappedHost.trafficgen  PRR:vector  ETV
attr interpolationmode  none
attr source  count(sinkRcvdPk)/count(sentPk)
attr title  "PRR, vector"
vector 608  Net802154MultiGateway.host[43].wrappedHost.trafficgen  sentPk:vector(packetBytes)  ETV
attr interpolationmode  none
attr source  sentPk
attr title  "packets sent, vector(packetBytes)"
vector 612  Net802154MultiGateway.host[43].wrappedHost.trafficgen  PRR:vector  ETV
attr interpolationmode  none
attr source  count(sinkRcvdPk)/count(sentPk)
attr title  "PRR, vector"
vector 750  Net802154MultiGateway.host[53].wrappedHost.trafficgen  sinkRcvdPk:vector(packetBytes)  ETV
attr interpolationmode  none
attr source  sinkRcvdPk
attr title  "own packets received by sink, vector(packetBytes)"
vector 610  Net802154MultiGateway.host[43].wrappedHost.trafficgen  sinkRcvdPk:vector(packetBytes)  ETV
attr interpolationmode  none
attr source  sinkRcvdPk
attr title  "own packets received by sink, vector(packetBytes)"
vector 594  Net802154MultiGateway.host[42].wrappedHost.trafficgen  sentPk:vector(packetBytes)  ETV
attr interpolationmode  none
attr source  sentPk
attr title  "packets sent, vector(packetBytes)"
vector 598  Net802154MultiGateway.host[42].wrappedHost.trafficgen  PRR:vector  ETV
attr interpolationmode  none
attr source  count(sinkRcvdPk)/count(sentPk)
attr title  "PRR, vector"
vector 832  Net802154MultiGateway.host[59].wrappedHost.trafficgen  sentPk:vector(packetBytes)  ETV
attr interpolationmode  none
attr source  sentPk
attr title  "packets sent, vector(packetBytes)"
vector 836  Net802154MultiGateway.host[59].wrappedHost.trafficgen  PRR:vector  ETV
attr interpolationmode  none
attr source  count(sinkRcvdPk)/count(sentPk)
attr title  "PRR, vector"
vector 596  Net802154MultiGateway.host[42].wrappedHost.trafficgen  sinkRcvdPk:vector(packetBytes)  ETV
attr interpolationmode  none
attr source  sinkRcvdPk
attr title  "own packets received by sink, vector(packetBytes)"
vector 834  Net802154MultiGateway.host[59].wrappedHost.trafficgen  sinkRcvdPk:vector(packetBytes)  ETV
attr interpolationmode  none
attr source  sinkRcvdPk
attr title  "own packets received by sink, vector(packetBytes)"
vector 636  Net802154MultiGateway.host[45].wrappedHost.trafficgen  sentPk:vector(packetBytes)  ETV
attr interpolationmode  none
attr source  sentPk
attr title  "packets sent, vector(packetBytes)"
vector 640  Net802154MultiGateway.host[45].wrappedHost.trafficgen  PRR:vector  ETV
attr interpolationmode  none
attr source  count(sinkRcvdPk)/count(sentPk)
attr title  "PRR, vector"
vector 638  Net802154MultiGateway.host[45].wrappedHost.trafficgen  sinkRcvdPk:vector(packetBytes)  ETV
attr interpolationmode  none
attr source  sinkRcvdPk
attr title  "own packets received by sink, vector(packetBytes)"
vector 496  Net802154MultiGateway.host[35].wrappedHost.trafficgen  sentPk:vector(packetBytes)  ETV
attr interpolationmode  none
attr source  sentPk
attr title  "packets sent, vector(packetBytes)"
vector 500  Net802154MultiGateway.host[35].wrappedHost.trafficgen  PRR:vector  ETV
attr interpolationmode  none
attr source  count(sinkRcvdPk)/count(sentPk)
attr title  "PRR, vector"
vector 498  Net802154MultiGateway.host[35].wrappedHost.trafficgen  sinkRcvdPk:vector(packetBytes)  ETV
attr interpolationmode  none
attr source  sinkRcvdPk
attr title  "own packets received by sink, vector(packetBytes)"
vector 538  Net802154MultiGateway.host[38].wrappedHost.trafficgen  sentPk:vector(packetBytes)  ETV
attr interpolationmode  none
attr source  sentPk
attr title  "packets sent, vector(packetBytes)"
vector 542  Net802154MultiGateway.host[38].wrappedHost.trafficgen  PRR:vector  ETV
attr interpolationmode  none
attr source  count(sinkRcvdPk)/count(sentPk)
attr title  "PRR, vector"
vector 540  Net802154MultiGateway.host[38].wrappedHost.trafficgen  sinkRcvdPk:vector(packetBytes)  ETV
attr interpolationmode  none
attr source  sinkRcvdPk
attr title  "own packets received by sink, vector(packetBytes)"
vector 552  Net802154MultiGateway.host[39].wrappedHost.trafficgen  sentPk:vector(packetBytes)  ETV
attr interpolationmode  none
attr source  sentPk
attr title  "packets sent, vector(packetBytes)"
vector 556  Net802154MultiGateway.host[39].wrappedHost.trafficgen  PRR:vector  ETV
attr interpolationmode  none
attr source  count(sinkRcvdPk)/count(sentPk)
attr title  "PRR, vector"
vector 554  Net802154MultiGateway.host[39].wrappedHost.trafficgen  sinkRcvdPk:vector(packetBytes)  ETV
attr interpolationmode  none
attr source  sinkRcvdPk
attr title  "own packets received by sink, vector(packetBytes)"
vector 132  Net802154MultiGateway.host[9].wrappedHost.trafficgen  sentPk:vector(packetBytes)  ETV
attr interpolationmode  none
attr source  sentPk
attr title  "packets sent, vector(packetBytes)"
vector 136  Net802154MultiGateway.host[9].wrappedHost.trafficgen  PRR:vector  ETV
attr interpolationmode  none
attr source  count(sinkRcvdPk)/count(sentPk)
attr title  "PRR, vector"
vector 134  Net802154MultiGateway.host[9].wrappedHost.trafficgen  sinkRcvdPk:vector(packetBytes)  ETV
attr interpolationmode  none
attr source  sinkRcvdPk
attr title  "own packets received by sink, vector(packetBytes)"
5	1262881	220.036542645366	76
5	1263280	220.159456435365	76
5	1263638	220.198229488516	76
5	1264037	220.233446660292	76
5	1264095	220.24058132742	76
5	1264338	220.287020745375	76
5	1264658	220.405811281121	76
5	1264847	220.433343800402	76
5	1264980	220.504451250391	76
5	1265120	220.521424940391	76
5	1265311	220.540950850979	76
5	1265414	220.555501366779	76
5	1265650	220.652324926897	76
5	1265851	220.668579987084	76
5	1265902	220.673646085783	76
5	1266032	220.732635910087	76
5	1266269	220.758602769382	76
5	1266427	220.772841872501	76
5	1266542	220.783736830252	76
5	1266785	220.889173289961	76
5	1267152	220.957895978447	76
5	1267331	220.97573110228	76
5	1267395	220.984368138007	76
5	1267653	221.068671021128	76
5	1267737	221.074205688256	76
5	1267880	221.089207011269	76
5	1268081	221.111736889699	76
5	1268295	221.132528785029	76
5	1268583	221.185112602528	76
5	1268772	221.213212586855	76
5	1269007	221.242110350763	76
5	1269197	221.309969801865	76
5	1269553	221.386602244547	76
5	1269795	221.400955288543	76
5	1269966	221.413285194794	76
5	1270197	221.432691890888	76
5	1270324	221.445377853399	76
5	1270493	221.507472008538	76
5	1270648	221.581876477881	76
5	1270837	221.618395275246	76
5	1271039	221.661863776039	76
5	1271331	221.830050327422	76
5	1271663	221.924802206251	76
5	1271826	221.970185458032	76
5	1271972	221.978479667079	76
5	1272275	221.998332338767	76
5	1272335	222.005602193183	76
5	1272470	222.039028952354	76
5	1272529	222.045843619482	76
5	1272659	222.072226574906	76
5	1273007	222.161352339098	76
5	1273139	222.176995305889	76
5	1273349	222.221915249113	76
5	1273396	222.227335425163	76
5	1273914	222.262046303502	76
5	1274122	222.279018973246	76
5	1274417	222.296131325898	76
5	1274528	222.301677021509	76
5	1275020	222.32495190013	76
5	1275142	222.331099405422	76
5	1275384	222.348228893357	76
5	1275475	222.355651168448	76
5	1275748	222.371981019749	76
5	1276021	222.387987173306	76
5	1276220	222.401708374545	76
5	1276366	222.415976799092	76
5	1276493	222.431942572625	76
5	1276741	222.504504807128	76
5	1277066	222.588406861231	76
5	1277249	222.612960247306	76
5	1277378	222.709348386574	76
5	1277700	222.750809396527	76
5	1277860	222.768378731691	76
5	1278021	222.787017108089	76
5	1278348	222.811656770923	76
5	1278627	222.826263264446	76
5	1278892	222.841913084201	76
5	1278954	222.847531159281	76
5	1279070	222.858964165161	76
5	1279284	222.881114098378	76
5	1279557	222.900310040144	76
5	1279629	222.910057520859	76
5	1279950	222.949323627055	76
5	1280145	222.96509685877	76
5	1280262	222.978458725506	76
5	1280553	223.031227811991	76
5	1280845	223.146813188258	76
5	1281119	223.168409327034	76
5	1281306	223.190686155623	76
5	1281372	223.225044699547	76
5	1281631	223.280565130126	76
5	1281989	223.312107957296	76
5	1282049	223.318789209998	76
5	1282327	223.40472260281	76
5	1282512	223.460993715603	76
5	1282734	223.492336296192	76
5	1283024	223.549959746626	76
5	1283084	223.557004926979	76
5	1283152	223.571120451839	76
5	1283454	223.615716874999	76
5	1283598	223.631400669039	76
5	1283664	223.654295365623	76
5	1283792	223.6928341261	76
5	1284078	223.768818978585	76
5	1284431	223.837293009595	76
5	1284627	223.850177891262	76
5	1284793	223.86615490381	76
5	1285016	223.901618888736	76
5	1285239	224.003356329643	76
5	1285498	224.077221367286	76
5	1285673	224.096397766549	76
5	1285935	224.144785220503	76
5	1286162	224.16477227572	76
5	1286576	224.267612093336	76
5	1286754	224.284730655089	76
5	1287080	224.321823069893	76
5	1287311	224.337150254911	76
5	1287510	224.353536053165	76
5	1287687	224.374582500552	76
5	1287880	224.408614245267	76
5	1288206	224.475899930783	76
5	1288361	224.489448464014	76
5	1288409	224.494663131142	76
5	1288468	224.500698412879	76
5	1288670	224.606109793858	76
5	1288893	224.632172239881	76
5	1289920	224.833090392004	76
5	1290155	224.85143110455	76
5	1290234	224.858346544478	76
5	1290478	224.927529810321	76
5	1290544	224.943343519282	76
5	1290742	224.963020574055	76
5	1291026	224.982953007354	76
5	1291322	225.001961298038	76
5	1291510	225.025297549682	76
5	1291926	225.081573049416	76
5	1292016	225.088357384038	76
5	1292205	225.103733420427	76
5	1292262	225.1099704527	76
5	1292575	225.143963652498	76
5	1292800	225.160142570133	76
5	1293165	225.190875590462	76
5	1293212	225.19577025759	76
5	1293520	225.231675217359	76
5	1293646	225.244925950724	76
5	1293712	225.302679679506	76
5	1293897	225.330265576989	76
5	1294037	225.34644148487	76
5	1294278	225.404619738915	76
5	1294664	225.452697890442	76
5	1294895	225.466944843573	76
5	1295011	225.479316881968	76
5	1295141	225.539368621203	76
5	1295285	225.568602794411	76
5	1295693	225.597291760378	76
5	1295914	225.611641613224	76
5	1296063	225.625973085138	76
5	1296198	225.634463825838	76
5	1296327	225.649901730717	76
5	1296515	225.665020853723	76
5	1296690	225.685987534189	76
5	1296819	225.705079706575	76
5	1297094	225.755210185669	76
5	1297345	225.777934422729	76
5	1297555	225.801825521078	76
5	1297807	225.849156423716	76
5	1298178	225.877385288118	76
5	1298306	225.889975454887	76
5	1298846	225.955435532859	76
5	1298932	225.966573316695	76
5	1299057	225.987188094419	76
5	1299246	226.0174363146	76
5	1299488	226.045482198246	76
5	1299558	226.059128616166	76
5	1300097	226.095918560629	76
5	1300267	226.108457244201	76
5	1300321	226.114074719407	76
5	1300449	226.129747478501	76
5	1300586	226.144487146809	76
5	1300814	226.169037478346	76
5	1300899	226.175212145474	76
5	1301042	226.189482176494	76
5	1301283	226.242864852145	76
5	1301377	226.260191796752	76
5	1301558	226.280331161971	76
5	1301805	226.309845191824	76
5	1302364	226.341400546387	76
5	1302454	226.349212226904	76
5	1302581	226.363584570583	76
5	1302739	226.420864777874	76
5	1302867	226.435995926336	76
5	1303106	226.476505782845	76
5	1303411	226.533289609037	76
5	1303592	226.553854947599	76
5	1303867	226.576879791998	76
5	1304045	226.594777852301	76
5	1304295	226.635686630026	76
5	1304452	226.649855802902	76
5	1304639	226.674620610802	76
5	1304768	226.730678399157	76
5	1305061	226.778205526353	76
5	1305246	226.799479143034	76
5	1305484	226.831592405658	76
5	1305550	226.850521317055	76
5	1306391	226.910222603206	76
5	1307043	226.939440089868	76
5	1307327	226.953846437865	76
5	1307835	226.994143397477	76
5	1307893	226.999963414183	76
5	1308135	227.042358411659	76
5	1308418	227.165182558209	76
5	1308664	227.183702898175	76
5	1308727	227.190482230383	76
5	1309321	227.23731094881	76
5	1309395	227.243456882962	76
5	1309538	227.261090165807	76
5	1309725	227.285923540286	76
5	1309915	227.367940843601	76
5	1310105	227.392218861821	76
5	1310349	227.440388293139	76
5	1310609	227.503271627177	76
5	1310784	227.520567491367	76
5	1311067	227.554719380183	76
5	1311197	227.567698899671	76
5	1311561	227.590565661507	76
5	1311620	227.595939169275	76
5	1311850	227.620629243628	76
5	1312514	227.677209337458	76
5	1312567	227.681768020613	76
5	1312658	227.689318839157	76
5	1312847	227.71034189026	76
5	1313080	227.737886688536	76
5	1313439	227.774399931276	76
5	1313647	227.788565381624	76
5	1313707	227.796029728679	76
5	1314176	227.862860446367	76
5	1314262	227.868938313541	76
5	1314378	227.881011049203	76
5	1314728	227.984882921184	76
5	1314858	228.001192366091	76
5	1314988	228.034001209695	76
5	1315231	228.069297656115	76
5	1315539	228.210218775231	76
5	1315653	228.221098576315	76
5	1315982	228.321935524606	76
5	1316039	228.327470191734	76
5	1316267	228.352420772061	76
5	1316508	228.388241194801	76
5	1316743	228.421588717314	76
5	1316809	228.438299523503	76
5	1317112	228.47837995773	76
5	1317290	228.497494530822	76
5	1317348	228.50366919795	76
5	1317754	228.573246689617	76
5	1318633	228.620511356745	76
5	1319241	228.639613380985	76
5	1320101	228.677164320095	76
5	1320293	228.687605995648	76
5	1320391	228.692820662776	76
5	1320590	228.706185201644	76
5	1320959	228.73093406632	76
5	1321118	228.745101980892	76
5	1321177	228.751102854347	76
5	1321367	228.795079358211	76
5	1321751	228.832759963979	76
5	1322050	228.846448561319	76
5	1322178	228.852932676715	76
5	1322410	228.869194724056	76
5	1322598	228.884396104367	76
5	1322661	228.891389401711	76
5	1322849	228.976716447963	76
5	1323155	229.026672489573	76
5	1323344	229.044535958438	76
5	1323573	229.069045617567	76
5	1323639	229.137469294648	76
5	1323703	229.152064018752	76
5	1323933	229.199224837579	76
5	1324018	229.206359504707	76
5	1324238	229.227171090657	76
5	1324297	229.233345757785	76
5	1324490	229.265509343566	76
5	1324739	229.32200174665	76
5	1324801	229.328593236375	76
5	1325096	229.362969138649	76
5	1325227	229.378902353697	76
5	1325287	229.385411276393	76
5	1325540	229.541183336982	76
5	1325601	229.548303946764	76
5	1325732	229.693279385038	76
5	1325925	229.725330795996	76
5	1326236	229.762905571021	76
5	1326412	229.781756751607	76
5	1326905	229.827985369241	76
5	1326968	229.833503969208	76
5	1327083	229.845738186253	76
5	1327401	229.877475494446	76
5	1327618	229.891364788699	76
5	1327812	229.905139898488	76
5	1328002	229.929283634302	76
5	1328286	229.970104938761	76
5	1328344	229.975100660219	76
5	1328520	229.99222582044	76
5	1328904	230.22788749484	76
5	1329071	230.266675531591	76
5	1329345	230.315085081073	76
5	1329588	230.435493057799	76
5	1329650	230.445916261538	76
5	1330033	230.568048266736	76
5	1330817	230.60770320979	76
5	1330999	230.616729892031	76
5	1331116	230.628399141187	76
5	1331436	230.697050718848	76
5	1331576	230.712017862363	76
5	1331875	230.739684944041	76
5	1332027	230.754870789577	76
5	1332323	230.805793330736	76
5	1332560	230.890045803116	76
5	1332811	230.965208986594	76
5	1333006	230.978654985565	76
5	1333339	230.999519373215	76
5	1333471	231.00486789373	76
5	1333747	231.026392686743	76
5	1333872	231.038685456748	76
5	1334062	231.092151490822	76
5	1334308	231.184290993894	76
5	1334550	231.219019609306	76
5	1334792	231.271368989099	76
5	1334977	231.292496981	76
5	1335368	231.316209043882	76
5	1335626	231.329024870499	76
5	1335686	231.33416123241	76
5	1335884	231.359226580379	76
5	1336162	231.408840144962	76
5	1336292	231.444511967494	76
5	1336601	231.496891733284	76
5	1336742	231.512512161221	76
5	1337052	231.538328092826	76
5	1337226	231.556250678442	76
5	1337471	231.589902525684	76
5	1337537	231.627026460703	76
5	1337616	231.67255401047	76
5	1337816	231.695488514571	76
5	1337998	231.714960097508	76
5	1338343	231.748302540342	76
5	1338403	231.755706291313	76
5	1338659	231.797371247154	76
5	1338721	231.809243777443	76
5	1338817	231.995128522267	76
5	1339456	232.03402048169	76
5	1339618	232.041479320389	76
5	1339718	232.048467270029	76
5	1339895	232.067624016239	76
5	1340200	232.122781155465	76
5	1340459	232.140418384357	76
5	1340630	232.154484214573	76
5	1340852	232.214154319563	76
5	1341130	232.261214763463	76
5	1341672	232.298174305596	76
5	1341777	232.302957721715	76
5	1341829	232.308077459839	76
5	1341956	232.323467739071	76
5	1342280	232.394588467443	76
5	1342487	232.412410203247	76
5	1342680	232.430753638928	76
5	1342918	232.448699172867	76
5	1343074	232.465472116244	76
5	1343204	232.482830448324	76
5	1343541	232.522048317411	76
5	1343912	232.547635422283	76
5	1344060	232.561686621523	76
5	1344202	232.579476527027	76
5	1344484	232.635183901809	76
5	1344628	232.643451317074	76
5	1344744	232.656167544613	76
5	1344924	232.735922000806	76
5	1345161	232.777152756818	76
5	1345289	232.803732337502	76
5	1345538	232.869586599514	76
5	1345716	232.914252605607	76
5	1346056	232.940266085395	76
5	1346262	232.953447398314	76
5	1346443	232.968135313513	76
5	1346647	232.989239147094	76
5	1346817	233.004249793423	76
5	1347009	233.039088375552	76
5	1347422	233.118026567133	76
5	1347537	233.130885686645	76
5	1347802	233.165918838146	76
5	1347872	233.171773505274	76
5	1348223	233.196588903623	76
5	1348286	233.205503218096	76
5	1348673	233.240958738803	76
5	1348799	233.253600301005	76
5	1348994	233.328650151345	76
5	1349316	233.397069104612	76
5	1349431	233.40814344337	76
5	1349705	233.455537824248	76
5	1349899	233.527782684357	76
5	1350136	233.570972985415	76
5	1350510	233.62109270409	76
5	1350823	233.644792458878	76
5	1350882	233.65101749087	76
5	1351280	233.70368730001	76
5	1351574	233.725943884269	76
5	1351621	233.731041441887	76
5	1351951	233.76415763749	76
5	1352082	233.778419755893	76
5	1352232	233.794464902087	76
5	1352690	233.946138548594	76
5	1352773	233.955074304911	76
5	1353141	234.055567002546	76
5	1353361	234.074659391708	76
5	1353537	234.09531816887	76
5	1353810	234.13436805532	76
5	1353952	234.197663231675	76
5	1354195	234.224786996764	76
5	1354323	234.241990638874	76
5	1354387	234.255795673144	76
5	1354451	234.280497470274	76
5	1354580	234.300882261232	76
5	1354646	234.404230012428	76
5	1354777	234.515344344292	76
5	1355125	234.549958319499	76
5	1355255	234.564512663559	76
5	1355460	234.58901318307	76
5	1355742	234.626973590551	76
5	1355843	234.668947816712	76
5	1356114	234.691990182184	76
5	1356242	234.706773011178	76
5	1356371	234.725409191214	76
5	1356501	234.743156532515	76
5	1356707	234.780806834354	76
5	1356752	234.785361280601	76
5	1357028	234.833533587357	76
5	1357122	234.844765657655	76
5	1357363	234.869037720061	76
5	1357585	234.895176460062	76
5	1357779	234.923759860077	76
5	1358040	234.950382695061	76
5	1358290	235.027038791327	76
5	1358482	235.046914675633	76
5	1358991	235.08733582679	76
5	1359051	235.092704842719	76
5	1359225	235.111418601143	76
5	1359564	235.175030483482	76
5	1359611	235.180454253672	76
5	1359851	235.205586292643	76
5	1359929	235.213825967885	76
5	1360104	235.231320670712	76
5	1360287	235.29548980674	76
5	1360479	235.316096047564	76
5	1360718	235.343637677476	76
5	1361067	235.370699597734	76
5	1361212	235.389337707491	76
5	1361401	235.417583447146	76
5	1361642	235.454442360527	76
5	1361773	235.48762115734	76
5	1362101	235.519354696442	76
5	1362174	235.523800010521	76
5	1362289	235.535634443756	76
5	1362419	235.569137143865	76
5	1362490	235.596314109909	76
5	1362672	235.613303528166	76
5	1362814	235.627568052202	76
5	1363132	235.699843805053	76
5	1363289	235.715314279853	76
5	1363479	235.746939244094	76
5	1363722	235.806527185573	76
5	1364122	235.842814140726	76
5	1364190	235.850434071574	76
5	1364298	235.858097637461	76
5	1364496	235.876874157436	76
5	1364730	235.904905034092	76
5	1365021	235.941581137744	76
5	1365234	235.9540416227	76
5	1365511	235.970364306169	76
5	1365640	235.980858246886	76
5	1365781	235.997337053326	76
5	1365849	236.015135302506	76
5	1366089	236.047268199132	76
5	1366452	236.175405892093	76
5	1366539	236.182696253578	76
5	1366683	236.199850503111	76
5	1367038	236.242736794379	76
5	1367461	236.262919990373	76
5	1367524	236.267877271607	76
5	1367651	236.280989689551	76
5	1367717	236.315005766235	76
5	1367905	236.346167195096	76
5	1368146	236.392756351522	76
5	1368444	236.429387964817	76
5	1368713	236.450507391495	76
5	1369009	236.469461310651	76
5	1369100	236.477108338278	76
5	1369230	236.490694750614	76
5	1369491	236.513682641741	76
5	1369747	236.53154422331	76
5	1369956	236.5458563415	76
5	1370091	236.561201556168	76
5	1370494	236.581691076159	76
5	1370675	236.595859395653	76
5	1370853	236.609160852575	76
5	1371045	236.630415274273	76
5	1371315	236.715933642723	76
5	1371603	236.742546613073	76
5	1371778	236.762405294627	76
5	1372013	236.850205247269	76
5	1372519	236.914563534223	76
5	1372726	236.921698201351	76
5	1373139	236.940406090827	76
5	1373281	236.945111497499	76
5	1373602	236.958667862131	76
5	1373861	236.976409586342	76
5	1374168	237.002930358582	76
5	1374229	237.00782502571	76
5	1374401	237.020679754525	76
5	1374625	237.036238481786	76
5	1374716	237.040990013213	76
5	1374848	237.056579487518	76
5	1375155	237.091121453001	76
5	1375271	237.104463141376	76
5	1375539	237.159217610951	76
5	1375728	237.17905368896	76
5	1375919	237.213402005299	76
5	1376156	237.269040853619	76
5	1376286	237.297722895171	76
5	1376354	237.38761604979	76
5	1376480	237.403303571619	76
5	1376672	237.479989117724	76
5	1376927	237.513464448624	76
5	1377107	237.526600218096	76
5	1377393	237.546812002411	76
5	1377521	237.563262908811	76
5	1377587	237.658687905751	76
5	1377841	237.831901418034	76
5	1378071	237.858310935505	76
5	1378198	237.976072149183	76
5	1378370	237.995783525752	76
5	1378698	238.031569401482	76
5	1379133	238.05227264111	76
5	1379999	238.097612937196	76
5	1380092	238.103579667362	76
5	1380287	238.117406836045	76
5	1380474	238.137711983003	76
5	1380782	238.206848287021	76
5	1380841	238.212799343362	76
5	1381031	238.24296554333	76
5	1381230	238.314399392405	76
5	1381458	238.339697752219	76
5	1381890	238.494027416273	76
5	1382036	238.504789847146	76
5	1382384	238.524109084027	76
5	1382919	238.554906646983	76
5	1382981	238.564453745344	76
5	1383169	238.632675117148	76
5	1383299	238.690717640158	76
5	1383545	238.790547059553	76
5	1383610	238.856833680225	76
5	1383798	238.89764129969	76
5	1384042	238.933062579134	76
5	1384280	238.993480221759	76
5	1384523	239.039021724131	76
5	1384711	239.134486747098	76
5	1384841	239.163732221517	76
5	1385692	239.226282656832	76
5	1385788	239.235022741523	76
5	1385847	239.239917408651	76
5	1385962	239.251146276562	76
5	1386092	239.270673015088	76
5	1386162	239.281875993202	76
5	1386403	239.310354192693	76
5	1386979	239.338333903517	76
5	1387137	239.344045303926	76
5	1387696	239.364002348847	76
5	1387868	239.370497015975	76
5	1388159	239.384076517583	76
5	1388312	239.400491191398	76
5	1388434	239.414623501685	76
5	1388561	239.430377281197	76
5	1389040	239.500214768452	76
5	1389278	239.510696097315	76
5	1389520	239.524048068862	76
5	1389627	239.530513731382	76
5	1390019	239.558106975526	76
5	1390078	239.564007859555	76
5	1390270	239.60548294644	76
5	1390461	239.776238680199	76
5	1390740	239.79549183682	76
5	1390868	239.809593350245	76
5	1391303	239.997525983246	76
5	1391553	240.00860978284	76
5	1391757	240.024867150363	76
5	1391804	240.02944171388	76
5	1392114	240.076561713203	76
5	1392159	240.081057596933	76
5	1392231	240.118382621742	76
5	1392354	240.131323471107	76
5	1392665	240.193258398636	76
5	1392781	240.205440250649	76
5	1393022	240.239071457299	76
5	1393261	240.259516412587	76
5	1393565	240.281849545264	76
5	1393761	240.295559648358	76
5	1393907	240.313863222911	76
5	1394286	240.356449234315	76
5	1394525	240.372263397638	76
5	1394716	240.388748190277	76
5	1394847	240.45150330556	76
5	1395091	240.518256164401	76
5	1395435	240.632137300364	76
5	1395498	240.638235387704	76
5	1395682	240.653583405926	76
5	1395874	240.667352485088	76
5	1395990	240.679891284932	76
5	1396268	240.736321271408	76
5	1396334	240.768529247187	76
5	1396575	240.808283022905	76
5	1396906	240.841095052763	76
5	1397108	240.865080423874	76
5	1397271	240.919203977774	76
5	1397369	240.925993938527	76
5	1397769	241.02034267584	76
5	1398008	241.032428585257	76
5	1398368	241.055385375404	76
5	1398415	241.061049067131	76
5	1398739	241.118522659791	76
5	1398866	241.133223512372	76
5	1399262	241.204694411549	76
5	1399549	241.228306862614	76
5	1399726	241.250485650808	76
5	1400242	241.316269383182	76
5	1400290	241.320740532258	76
5	1400507	241.36009370932	76
5	1400671	241.374851489823	76
5	1401076	241.41079443735	76
5	1401348	241.4275903503	76
5	1401420	241.433765017428	76
5	1401600	241.451483746361	76
5	1401788	241.476963968369	76
5	1401977	241.498102366537	76
5	1402106	241.517039674227	76
5	1402323	241.567716997218	76
5	1402465	241.647625749023	76
5	1402655	241.688210089157	76
5	1402798	241.722185185499	76
5	1403137	241.736540815017	76
5	1403344	241.750635493852	76
5	1403466	241.762180383303	76
5	1403658	241.77598310308	76
5	1403754	241.784789408372	76
5	1403830	241.789640103968	76
5	1404048	241.806238904589	76
5	1404248	241.906021128557	76
5	1404476	241.928515876971	76
5	1404818	242.011170427233	76
5	1405005	242.036523095594	76
5	1405354	242.083226728844	76
5	1405472	242.096621878486	76
5	1405870	242.16176411288	76
5	1405932	242.168312823686	76
5	1406346	242.216227453131	76
5	1406420	242.222954874713	76
5	1406624	242.246057527841	76
5	1406904	242.426248700165	76
5	1406988	242.441822220769	76
5	1407216	242.483537778566	76
5	1407740	242.523494166673	76
5	1407814	242.528563327903	76
5	1408148	242.551143947285	76
5	1408354	242.565134826207	76
5	1408482	242.578601163756	76
5	1408865	242.617017846498	76
5	1408998	242.626671124253	76
5	1409224	242.710511302517	76
5	1409355	242.727547016573	76
5	1409485	242.775112062691	76
5	1409768	242.813024250249	76
5	1410082	242.841985224015	76
5	1410464	242.863898651128	76
5	1410529	242.870722099323	76
5	1410752	242.917863706475	76
5	1411012	242.949565042207	76
5	1411128	243.004205273662	76
5	1411422	243.039610394268	76
5	1411651	243.058304600275	76
5	1412037	243.107494582435	76
5	1412085	243.112437983056	76
5	1412204	243.150375181965	76
5	1412416	243.171602116426	76
5	1413318	243.226849181577	76
5	1413399	243.23370733072	76
5	1413545	243.244553531552	76
5	1413689	243.261759757495	76
5	1413805	243.291157385588	76
5	1413997	243.336230893303	76
5	1414235	243.447669344543	76
5	1414427	243.492481262955	76
5	1414615	243.522966622842	76
5	1414820	243.620815131383	76
5	1415064	243.643781801094	76
5	1415348	243.663294371533	76
5	1415486	243.678229766208	76
5	1415710	243.701109896962	76
5	1415898	243.72379449551	76
5	1416181	243.745303786641	76
5	1416453	243.764114501881	76
5	1416512	243.770276587459	76
5	1416821	243.80982367908	76
5	1417127	243.835681737433	76
5	1417187	243.843309634364	76
5	1417777	244.018906350725	76
5	1418149	244.04245773061	76
5	1418366	244.057813738087	76
5	1418595	244.065786113889	76
5	1418969	244.087085885819	76
5	1419208	244.105579715244	76
5	1419286	244.11789704906	76
5	1419521	244.131867433461	76
5	1419637	244.144875199472	76
5	1419936	244.197130312105	76
5	1420063	244.209503029488	76
5	1420230	244.252944227207	76
5	1420296	244.268895005926	76
5	1420485	244.297427456773	76
5	1420671	244.384515774592	76
5	1420912	244.416207766716	76
5	1421147	244.456864058467	76
5	1421213	244.474172877659	76
5	1421586	244.545917850163	76
5	1421688	244.551779394424	76
5	1421789	244.559252870054	76
5	1421965	244.580755846068	76
5	1422381	244.615220939347	76
5	1422671	244.634723530016	76
5	1423015	244.654757824814	76
5	1423223	244.670734619251	76
5	1423465	244.714808663738	76
5	1423877	244.754797397566	76
5	1424074	244.768191586041	76
5	1424260	244.789094914494	76
5	1424520	244.813899848803	76
5	1424580	244.820130105706	76
5	1424968	244.860173462769	76
5	1425029	244.866988129897	76
5	1425276	244.930973881858	76
5	1425662	244.99880093906	76
5	1426031	245.014209618181	76
5	1426311	245.027081275675	76
5	1426434	245.037130668619	76
5	1426520	245.043945335747	76
5	1426664	245.060171050959	76
5	1426827	245.094206536926	76
5	1427032	245.114623513347	76
5	1427236	245.127466874207	76
5	1427306	245.132160387259	76
5	1427483	245.145806433142	76
5	1427737	245.167625351462	76
5	1428044	245.188624239801	76
5	1428285	245.200988299385	76
5	1428423	245.209473429675	76
5	1428610	245.225906464788	76
5	1428859	245.242169506359	76
5	1428922	245.249638192716	76
5	1429371	245.2867482176	76
5	1429429	245.292763766037	76
5	1429675	245.343744247841	76
5	1429860	245.366521646986	76
5	1429995	245.441852531775	76
5	1430320	245.468698781143	76
5	1430502	245.481058483523	76
5	1430645	245.496303066356	76
5	1430886	245.544202832494	76
5	1431268	245.56701929928	76
5	1431553	245.579351132211	76
5	1431752	245.590713451637	76
5	1431814	245.597909930473	76
5	1432206	245.650859982408	76
5	1432379	245.659537488559	76
5	1432629	245.67468565801	76
5	1432735	245.68258352735	76
5	1432926	245.70557643033	76
5	1433107	245.818137651057	76
5	1433221	245.829735119441	76
5	1433520	245.901332465207	76
5	1433651	245.916314166831	76
5	1433886	245.949759846258	76
5	1434318	245.997689698154	76
5	1434498	246.009210957344	76
5	1434758	246.025631705671	76
5	1434873	246.037811334013	76
5	1435145	246.081624956713	76
5	1435273	246.096095562731	76
5	1435464	246.135312068592	76
5	1435654	246.165069098387	76
5	1435986	246.214477925701	76
5	1436197	246.228791910846	76
5	1436318	246.240522531489	76
5	1436560	246.267413887222	76
5	1436866	246.320959255202	76
5	1437002	246.337573354189	76
5	1437182	246.358000581049	76
5	1437427	246.392935021532	76
5	1437553	246.40752701285	76
5	1437744	246.46088160048	76
5	1437990	246.505395674764	76
5	1438351	246.55238388452	76
5	1438489	246.559198551648	76
5	1438705	246.578338387688	76
5	1438888	246.598110609914	76
5	1439105	246.686647127522	76
5	1439295	246.707288850655	76
5	1439411	246.735409350572	76
5	1439597	246.759801524649	76
5	1439789	246.788845203964	76
5	1439974	246.815744684336	76
5	1440040	246.830557914811	76
5	1440225	246.867082292858	76
5	1440355	246.892161875138	76
5	1440597	246.934277146168	76
5	1440794	246.970949695675	76
5	1440859	246.982844311672	76
5	1441049	247.011532557048	76
5	1441234	247.034043187473	76
5	1441617	247.140984881939	76
5	1441689	247.151477708721	76
5	1441914	247.16497960336	76
5	1442177	247.18112820585	76
5	1442224	247.186063484145	76
5	1442355	247.205031515082	76
5	1442421	247.227526717874	76
5	1442703	247.352227869888	76
5	1442818	247.364931560483	76
5	1443108	247.428333256064	76
5	1443236	247.442442559129	76
5	1443366	247.469537614737	76
5	1443604	247.534254019491	76
5	1443845	247.568058207166	76
5	1444303	247.722561747668	76
5	1444348	247.727456414796	76
5	1444541	247.795853647447	76
5	1444839	247.833839748625	76
5	1444965	247.846274599392	76
5	1445206	247.877627840331	76
5	1445336	247.896156969944	76
5	1445588	247.965385806209	76
5	1445713	247.979310770814	76
5	1445848	248.017283874488	76
5	1445975	248.031240144496	76
5	1446359	248.062175331593	76
5	1446691	248.084649700409	76
5	1447173	248.105400964332	76
5	1447505	248.12269878934	76
5	1447765	248.137382892848	76
5	1447837	248.143589117675	76
5	1447953	248.154746267048	76
5	1448198	248.222847538729	76
5	1448390	248.255013385427	76
5	1448519	248.268074818667	76
5	1448647	248.283075626806	76
5	1448837	248.31105241353	76
5	1449167	248.377209323026	76
5	1449256	248.383351058205	76
5	1449499	248.405891279045	76
5	1449688	248.426216911322	76
5	1449924	248.45606121272	76
5	1450165	248.64553817931	76
5	1450423	248.747598932639	76
5	1450643	248.759693201911	76
5	1450899	248.776277900807	76
5	1450999	248.783221506511	76
5	1451174	248.800436312434	76
5	1451545	248.899753706345	76
5	1451664	248.909170146075	76
5	1451807	248.926169102788	76
5	1452049	248.964757867749	76
5	1452114	248.981829953945	76
5	1452302	249.005428797301	76
5	1452475	249.021892251626	76
5	1452723	249.124979901946	76
5	1452964	249.157840451349	76
5	1453094	249.236370445579	76
5	1453321	249.267155978238	76
5	1453447	249.281345047293	76
5	1453577	249.312637830397	76
5	1453821	249.347481187992	76
5	1454062	249.402068275405	76
5	1454300	249.43414352635	76
5	1454596	249.46779609531	76
5	1454739	249.483800388112	76
5	1454853	249.497324939321	76
5	1455166	249.537829979706	76
5	1455316	249.5560008416	76
5	1455655	249.586363035641	76
5	1455786	249.60050980289	76
5	1456100	249.634777049255	76
5	1456496	249.666146409117	76
5	1456560	249.673481868757	76
5	1456796	249.703363591864	76
5	1456924	249.728528696324	76
5	1457054	249.761312573463	76
5	1457336	249.815054297284	76
5	1457544	249.837144636775	76
5	1457879	249.945007392671	76
5	1457968	249.951182059799	76
5	1458175	249.973466891162	76
5	1458360	249.994395845288	76
5	1458626	250.052007370066	76
5	1458797	250.065501458873	76
5	1459043	250.141254718194	76
5	1459174	250.175805682937	76
5	1459240	250.187561311584	76
5	1459539	250.232477924913	76
5	1459815	250.309834580774	76
5	1460098	250.327971529833	76
5	1460399	250.352655013557	76
5	1460581	250.369127911339	76
5	1460765	250.39019488872	76
5	1460895	250.410239877873	76
5	1461058	250.460214317105	76
5	1461414	250.507678231346	76
5	1461632	250.523313807789	76
5	1461843	250.539238071884	76
5	1461985	250.554750408574	76
5	1462392	250.609121033248	76
5	1462505	250.621502733556	76
5	1462742	250.713714319269	76
5	1462858	250.72618290267	76
5	1463078	250.785695102742	76
5	1463266	250.808278076833	76
5	1463325	250.814452743961	76
[...]
850	2409271	393.486868927263	0.96703296703297
850	2409965	393.523980414671	0.97802197802198
850	2412169	393.996687565132	0.96739130434783
850	2412404	394.02984905254	0.97826086956522
850	2431209	396.773444225926	0.96774193548387
850	2431660	396.809915713334	0.97849462365591
850	2464647	402.092580609112	0.96808510638298
850	2465072	402.12382209652	0.97872340425532
850	2475615	403.964490463065	0.96842105263158
850	2476077	403.996371950473	0.97894736842105
850	2481129	404.745761098678	0.96875
850	2482158	404.817806882286	0.95876288659794
850	2482481	404.842867412868	0.96907216494845
850	2482864	404.874606369694	0.97938144329897
850	2522274	411.722049773699	0.96938775510204
850	2523312	411.795341261107	0.97959183673469
850	2526746	412.419055565765	0.96969696969697
850	2527593	412.458727053173	0.97979797979798
850	2533973	413.473108827995	0.97
860	1266805	220.925374521235	76
860	1302870	226.446224325633	76
860	1305936	226.891147940265	76
860	1308724	227.189739491598	76
860	1311862	227.623877880246	76
860	1321372	228.809609104107	76
860	1338966	232.011355812817	76
860	1341424	232.287588281859	76
860	1343207	232.489846860199	76
860	1364140	235.846592700224	76
860	1367910	236.35959489431	76
860	1389302	239.514805518314	76
860	1392359	240.163616941424	76
860	1394215	240.350996733065	76
860	1418151	244.043295591848	76
860	1420673	244.385286309504	76
860	1427848	245.179831972463	76
860	1435846	246.205923074277	76
860	1446165	248.049572243197	76
860	1451810	248.931596410537	76
860	1477139	252.880405819763	76
860	1495124	255.228444362085	76
860	1501314	256.071792764516	76
860	1507451	256.928363938215	76
860	1518861	258.538581855467	76
860	1526126	259.572368203383	76
860	1540038	261.881860422243	76
860	1541946	262.125904907678	76
860	1573346	267.535721904419	76
860	1581050	268.659857999362	76
860	1582693	269.208305643179	76
860	1590613	270.415339690295	76
860	1601593	272.038738496714	76
860	1602188	272.103616432097	76
860	1650296	279.181554198946	76
860	1663751	281.465007281884	76
860	1682181	283.944900089969	76
860	1690639	285.426686637964	76
860	1698998	286.901883645735	76
860	1768525	297.455677863365	76
860	1788776	300.272386308616	76
860	1788840	300.283379127075	76
860	1805744	302.846615164154	76
860	1808051	303.284736231052	76
860	1810150	303.567944183566	76
860	1826268	305.445523012359	76
860	1829231	305.875201735355	76
860	1838042	307.091584938431	76
860	1843457	307.868455522172	76
860	1848990	309.113011611626	76
860	1854506	309.868345898959	76
860	1855520	309.952463701926	76
860	1872669	312.208577654783	76
860	1878210	312.810619468118	76
860	1879141	313.032618458461	76
860	1888110	314.683101650819	76
860	1905605	317.57540481943	76
860	1927919	320.632167070824	76
860	1978034	328.951264055886	76
860	1982742	329.516928214074	76
860	1998257	331.699525444669	76
860	2033254	336.798757845103	76
860	2042960	338.140625593993	76
860	2045171	338.580612606117	76
860	2073664	343.070856595066	76
860	2091156	345.282622406471	76
860	2094285	345.670942969546	76
860	2108081	347.84216508703	76
860	2113498	348.505875406375	76
860	2114359	348.612613784937	76
860	2114869	348.681943137996	76
860	2117931	349.299970151056	76
860	2159437	355.355543745427	76
860	2163695	356.310587202821	76
860	2170623	357.610537557953	76
860	2193793	361.087279385758	76
860	2215088	363.788611180521	76
860	2216182	363.99993302086	76
860	2229488	365.623944664128	76
860	2250992	369.012097319541	76
860	2268910	372.399223603225	76
860	2277554	373.503815953604	76
860	2285490	374.514188408481	76
860	2292031	375.684667068655	76
860	2292196	375.695549604715	76
860	2330828	381.473640049126	76
860	2359990	386.490613572417	76
860	2361477	386.691958248013	76
860	2379457	389.576058913727	76
860	2397563	391.805104277582	76
860	2399739	392.068498331312	76
860	2432861	397.06058925358	76
860	2437056	397.72641325031	76
860	2438023	397.959534973743	76
860	2453314	400.493199202658	76
860	2460279	401.506903167024	76
860	2478628	404.366250151467	76
860	2510184	409.897805332312	76
860	2519298	411.200658651718	76
860	2526038	412.364052538057	76
862	1267152	220.957895978447	76
862	1303106	226.476505782845	76
862	1307835	226.994143397477	76
862	1309321	227.23731094881	76
862	1312514	227.677209337458	76
862	1322050	228.846448561319	76
862	1339718	232.048467270029	76
862	1341956	232.323467739071	76
862	1343541	232.522048317411	76
862	1364496	235.876874157436	76
862	1368146	236.392756351522	76
862	1390019	239.558106975526	76
862	1392665	240.193258398636	76
862	1394716	240.388748190277	76
862	1419286	244.11789704906	76
862	1420912	244.416207766716	76
862	1428423	245.209473429675	76
862	1436318	246.240522531489	76
862	1446691	248.084649700409	76
862	1452049	248.964757867749	76
862	1477852	252.918797276975	76
862	1495427	255.259685819297	76
862	1501906	256.109224221728	76
862	1507833	256.959285395427	76
862	1526677	259.604889660595	76
862	1540275	261.913741879455	76
862	1542584	262.16370436489	76
862	1573637	267.567603361631	76
862	1581286	268.690779456574	76
862	1583114	269.240025100391	76
862	1591455	270.468509147507	76
862	1602125	272.0860515845	76
862	1602570	272.135817889309	76
862	1650532	279.210555656158	76
862	1664036	281.495288739096	76
862	1682518	283.976461547181	76
862	1691448	285.474468095176	76
862	1699618	286.936163102947	76
862	1769139	297.505537320577	76
862	1789352	300.321594584287	76
862	1789637	300.340837251415	76
862	1806313	302.884094621366	76
862	1808417	303.316617688264	76
862	1810521	303.600785640778	76
862	1826504	305.477404469571	76
862	1829754	305.913913192567	76
862	1838280	307.121546395643	76
862	1843746	307.901296979384	76
862	1849410	309.147133068838	76
862	1855227	309.908337356171	76
862	1855756	309.984345159138	76
862	1872929	312.24192834531	76
862	1878584	312.83962092533	76
862	1879384	313.064179915673	76
862	1888906	314.738349108031	76
862	1906461	317.650487610898	76
862	1928280	320.664048528036	76
862	1978496	328.986183513098	76
862	1983491	329.552645671286	76
862	1998664	331.732366901881	76
862	2034140	336.857892636571	76
862	2044009	338.219367931663	76
862	2045991	338.633352063329	76
862	2073976	343.103378052278	76
862	2092060	345.326563863683	76
862	2094748	345.707940426758	76
862	2108547	347.880876544242	76
862	2114074	348.535516863587	76
862	2114860	348.662679242149	76
862	2115107	348.712544595208	76
862	2118494	349.339961608268	76
862	2159722	355.388705202639	76
862	2164013	356.343428660033	76
862	2170862	357.643059015165	76
862	2194039	361.11820084297	76
862	2215345	363.820812637733	76
862	2216658	364.034532478072	76
862	2230237	365.68127012134	76
862	2251228	369.044618776753	76
862	2269730	372.449355060437	76
862	2278002	373.537727410816	76
862	2285845	374.545749865693	76
862	2292541	375.717188525867	76
862	2292943	375.746799061927	76
862	2331065	381.504881506338	76
862	2360226	386.523455029629	76
862	2362191	386.729389705225	76
862	2379863	389.608580370939	76
862	2398113	391.838905734794	76
862	2400065	392.101019788524	76
862	2433284	397.090550710792	76
862	2437520	397.764804707522	76
862	2439030	398.006786430955	76
862	2453668	400.52732065987	76
862	2461366	401.550844624236	76
862	2478972	404.399411608679	76
862	2510424	409.929366789524	76
862	2519685	411.23350010893	76
862	2526719	412.411193995269	76
863	5873	30	76
863	24366	31.032406909874	76
863	26715	31.474714834881	76
863	36950	32.579781015327	76
863	40313	33.069373188999	76
863	51481	35.132333627127	76
863	66470	37.675095703957	76
863	79830	39.600503211477	76
863	86703	40.603038230286	76
863	132549	47.737794382807	76
863	165970	53.062593145326	76
863	173860	54.19235396768	76
863	176230	54.498701668898	76
863	177776	54.640287666267	76
863	204706	58.957569075609	76
863	213969	60.255800499366	76
863	225050	61.984108740744	76
863	253653	66.051145192674	76
863	261965	66.865693697435	76
863	262781	66.904376276105	76
863	273030	68.62208046847	76
863	286207	70.379950750461	76
863	291201	71.335484280653	76
863	292646	71.536759672877	76
863	295768	72.1077362355	76
863	298898	72.542982622978	76
863	303497	73.074359112824	76
863	308931	73.948334559471	76
863	309649	74.068760948409	76
863	316456	75.076490270387	76
863	340809	78.714470711635	76
863	362269	82.104829655169	76
863	387927	85.658803801464	76
863	389289	85.766343000469	76
863	391835	86.065073189231	76
863	394421	86.630977285589	76
863	415160	90.428817430395	76
863	417408	90.792737585947	76
863	419470	91.433652170103	76
863	420585	91.57116681028	76
863	430659	93.271060702402	76
863	441627	95.077594461526	76
863	467030	98.838887429336	76
863	472467	99.896423512732	76
863	473863	100.009869262745	76
863	524417	108.423566506924	76
863	525796	108.74305460146	76
863	525798	108.744439013737	76
863	530815	109.940434894208	76
863	556075	113.323114004914	76
863	580877	116.918935146454	76
863	588111	118.220002928064	76
863	588953	118.274194114483	76
863	595565	119.120622836933	76
863	602488	120.205758898305	76
863	620087	123.323148546028	76
863	624915	123.98127357648	76
863	647867	128.140186674729	76
863	672709	131.909174856676	76
863	692078	134.900403880591	76
863	703918	136.709231446132	76
863	717754	138.597296162296	76
863	732642	140.68001320473	76
863	768164	146.608597508551	76
863	772882	147.273234066137	76
863	796731	151.795495128552	76
863	797176	151.840458257694	76
863	805441	152.928646558954	76
863	843286	158.973085935331	76
863	856120	161.092699412256	76
863	864651	162.072004050695	76
863	875983	164.045526524144	76
863	876188	164.063896106712	76
863	892451	166.021298757994	76
863	904155	167.322501376666	76
863	910443	168.710974419528	76
863	937196	173.511745922112	76
863	974448	179.092121254148	76
863	983720	180.842688384354	76
863	1007313	184.082137097481	76
863	1018644	186.018689729496	76
863	1031616	187.532550332528	76
863	1033512	187.825404174122	76
863	1033813	187.841349123382	76
863	1035515	187.931388258185	76
863	1056516	190.810138224705	76
863	1063420	191.768684570158	76
863	1090504	195.543357566492	76
863	1091107	195.614978422896	76
863	1092423	196.048672202418	76
863	1100335	196.837905655808	76
863	1107049	197.751062839736	76
863	1108388	197.898715795834	76
863	1111963	198.316531989359	76
863	1113550	198.423910496171	76
863	1154519	204.298855341232	76
863	1155888	204.406795454339	76
863	1168176	206.776030986227	76
863	1169044	206.848652880292	76
863	1173957	207.780549549643	76
863	1184260	208.866012488634	76
863	1191421	210.271450280903	76
863	1227073	214.608108838011	76
863	1244491	217.43128884652	76
863	2561565	418.013558963678	76
863	2584303	422.068283926605	76
863	2588428	422.542128814272	76
863	2623492	427.14938283288	76
863	2623722	427.162050630727	76
863	2641653	430.545105077796	76
863	2647112	431.360000582142	76
863	2648067	431.517134869814	76
863	2694210	438.6237993501	76
863	2703966	440.358053662482	76
863	2712360	441.068589471156	76
863	2735042	444.298463349745	76
863	2748674	446.694338227941	76
863	2759056	448.446977904731	76
863	2781505	452.071926894339	76
863	2782862	452.300135764988	76
863	2829687	459.706700256875	76
863	2848020	462.752348372378	76
863	2859116	465.272832731909	76
863	2861889	465.899392253117	76
863	2869731	467.271684136505	76
863	2879855	468.759227939187	76
863	2886818	469.802330035523	76
863	2896976	470.818190667907	76
863	2914845	473.03910732604	76
863	2925797	474.457273958862	76
863	2933856	475.69245224833	76
863	2935114	475.980083889392	76
863	2936870	476.3488349917	76
863	2958560	479.612405969502	76
863	2994479	484.571422956196	76
863	3005043	485.859519144264	76
863	3015973	487.497549666201	76
864	1266805	220.925374521235	-nan
864	1267152	220.957895978447	1
864	1302870	226.446224325633	0.5
864	1303106	226.476505782845	1
864	1305936	226.891147940265	0.66666666666667
864	1307835	226.994143397477	1
864	1308724	227.189739491598	0.75
864	1309321	227.23731094881	1
864	1311862	227.623877880246	0.8
864	1312514	227.677209337458	1
864	1321372	228.809609104107	0.83333333333333
864	1322050	228.846448561319	1
864	1338966	232.011355812817	0.85714285714286
864	1339718	232.048467270029	1
864	1341424	232.287588281859	0.875
864	1341956	232.323467739071	1
864	1343207	232.489846860199	0.88888888888889
864	1343541	232.522048317411	1
864	1364140	235.846592700224	0.9
864	1364496	235.876874157436	1
864	1367910	236.35959489431	0.90909090909091
864	1368146	236.392756351522	1
864	1389302	239.514805518314	0.91666666666667
864	1390019	239.558106975526	1
864	1392359	240.163616941424	0.92307692307692
864	1392665	240.193258398636	1
864	1394215	240.350996733065	0.92857142857143
864	1394716	240.388748190277	1
864	1418151	244.043295591848	0.93333333333333
864	1419286	244.11789704906	1
864	1420673	244.385286309504	0.9375
864	1420912	244.416207766716	1
864	1427848	245.179831972463	0.94117647058824
864	1428423	245.209473429675	1
864	1435846	246.205923074277	0.94444444444444
864	1436318	246.240522531489	1
864	1446165	248.049572243197	0.94736842105263
864	1446691	248.084649700409	1
864	1451810	248.931596410537	0.95
864	1452049	248.964757867749	1
864	1477139	252.880405819763	0.95238095238095
864	1477852	252.918797276975	1
864	1495124	255.228444362085	0.95454545454545
864	1495427	255.259685819297	1
864	1501314	256.071792764516	0.95652173913043
864	1501906	256.109224221728	1
864	1507451	256.928363938215	0.95833333333333
864	1507833	256.959285395427	1
864	1518861	258.538581855467	0.96
864	1526126	259.572368203383	0.92307692307692
864	1526677	259.604889660595	0.96153846153846
864	1540038	261.881860422243	0.92592592592593
864	1540275	261.913741879455	0.96296296296296
864	1541946	262.125904907678	0.92857142857143
864	1542584	262.16370436489	0.96428571428571
864	1573346	267.535721904419	0.93103448275862
864	1573637	267.567603361631	0.96551724137931
864	1581050	268.659857999362	0.93333333333333
864	1581286	268.690779456574	0.96666666666667
864	1582693	269.208305643179	0.93548387096774
864	1583114	269.240025100391	0.96774193548387
864	1590613	270.415339690295	0.9375
864	1591455	270.468509147507	0.96875
864	1601593	272.038738496714	0.93939393939394
864	1602125	272.0860515845	0.96969696969697
864	1602188	272.103616432097	0.94117647058824
864	1602570	272.135817889309	0.97058823529412
864	1650296	279.181554198946	0.94285714285714
864	1650532	279.210555656158	0.97142857142857
864	1663751	281.465007281884	0.94444444444444
864	1664036	281.495288739096	0.97222222222222
864	1682181	283.944900089969	0.94594594594595
864	1682518	283.976461547181	0.97297297297297
864	1690639	285.426686637964	0.94736842105263
864	1691448	285.474468095176	0.97368421052632
864	1698998	286.901883645735	0.94871794871795
864	1699618	286.936163102947	0.97435897435897
864	1768525	297.455677863365	0.95
864	1769139	297.505537320577	0.975
864	1788776	300.272386308616	0.95121951219512
864	1788840	300.283379127075	0.92857142857143
864	1789352	300.321594584287	0.95238095238095
864	1789637	300.340837251415	0.97619047619048
864	1805744	302.846615164154	0.95348837209302
864	1806313	302.884094621366	0.97674418604651
864	1808051	303.284736231052	0.95454545454545
864	1808417	303.316617688264	0.97727272727273
864	1810150	303.567944183566	0.95555555555556
864	1810521	303.600785640778	0.97777777777778
864	1826268	305.445523012359	0.95652173913043
864	1826504	305.477404469571	0.97826086956522
864	1829231	305.875201735355	0.95744680851064
864	1829754	305.913913192567	0.97872340425532
864	1838042	307.091584938431	0.95833333333333
864	1838280	307.121546395643	0.97916666666667
864	1843457	307.868455522172	0.95918367346939
864	1843746	307.901296979384	0.97959183673469
864	1848990	309.113011611626	0.96
864	1849410	309.147133068838	0.98
864	1854506	309.868345898959	0.96078431372549
864	1855227	309.908337356171	0.98039215686275
864	1855520	309.952463701926	0.96153846153846
864	1855756	309.984345159138	0.98076923076923
864	1872669	312.208577654783	0.9622641509434
864	1872929	312.24192834531	0.9811320754717
864	1878210	312.810619468118	0.96296296296296
864	1878584	312.83962092533	0.98148148148148
864	1879141	313.032618458461	0.96363636363636
864	1879384	313.064179915673	0.98181818181818
864	1888110	314.683101650819	0.96428571428571
864	1888906	314.738349108031	0.98214285714286
864	1905605	317.57540481943	0.96491228070175
864	1906461	317.650487610898	0.98245614035088
864	1927919	320.632167070824	0.96551724137931
864	1928280	320.664048528036	0.98275862068966
864	1978034	328.951264055886	0.96610169491525
864	1978496	328.986183513098	0.98305084745763
864	1982742	329.516928214074	0.96666666666667
864	1983491	329.552645671286	0.98333333333333
864	1998257	331.699525444669	0.9672131147541
864	1998664	331.732366901881	0.98360655737705
864	2033254	336.798757845103	0.96774193548387
864	2034140	336.857892636571	0.98387096774194
864	2042960	338.140625593993	0.96825396825397
864	2044009	338.219367931663	0.98412698412698
864	2045171	338.580612606117	0.96875
864	2045991	338.633352063329	0.984375
864	2073664	343.070856595066	0.96923076923077
864	2073976	343.103378052278	0.98461538461538
864	2091156	345.282622406471	0.96969696969697
864	2092060	345.326563863683	0.98484848484848
864	2094285	345.670942969546	0.97014925373134
864	2094748	345.707940426758	0.98507462686567
864	2108081	347.84216508703	0.97058823529412
864	2108547	347.880876544242	0.98529411764706
864	2113498	348.505875406375	0.97101449275362
864	2114074	348.535516863587	0.98550724637681
864	2114359	348.612613784937	0.97142857142857
864	2114860	348.662679242149	0.98571428571429
864	2114869	348.681943137996	0.97183098591549
864	2115107	348.712544595208	0.98591549295775
864	2117931	349.299970151056	0.97222222222222
864	2118494	349.339961608268	0.98611111111111
864	2159437	355.355543745427	0.97260273972603
864	2159722	355.388705202639	0.98630136986301
864	2163695	356.310587202821	0.97297297297297
864	2164013	356.343428660033	0.98648648648649
864	2170623	357.610537557953	0.97333333333333
864	2170862	357.643059015165	0.98666666666667
864	2193793	361.087279385758	0.97368421052632
864	2194039	361.11820084297	0.98684210526316
864	2215088	363.788611180521	0.97402597402597
864	2215345	363.820812637733	0.98701298701299
864	2216182	363.99993302086	0.97435897435897
864	2216658	364.034532478072	0.98717948717949
864	2229488	365.623944664128	0.9746835443038
864	2230237	365.68127012134	0.9873417721519
864	2250992	369.012097319541	0.975
864	2251228	369.044618776753	0.9875
864	2268910	372.399223603225	0.97530864197531
864	2269730	372.449355060437	0.98765432098765
864	2277554	373.503815953604	0.97560975609756
864	2278002	373.537727410816	0.98780487804878
864	2285490	374.514188408481	0.97590361445783
864	2285845	374.545749865693	0.98795180722892
864	2292031	375.684667068655	0.97619047619048
864	2292196	375.695549604715	0.96470588235294
864	2292541	375.717188525867	0.97647058823529
864	2292943	375.746799061927	0.98823529411765
864	2330828	381.473640049126	0.97674418604651
864	2331065	381.504881506338	0.98837209302326
864	2359990	386.490613572417	0.97701149425287
864	2360226	386.523455029629	0.98850574712644
864	2361477	386.691958248013	0.97727272727273
864	2362191	386.729389705225	0.98863636363636
864	2379457	389.576058913727	0.97752808988764
864	2379863	389.608580370939	0.98876404494382
864	2397563	391.805104277582	0.97777777777778
864	2398113	391.838905734794	0.98888888888889
864	2399739	392.068498331312	0.97802197802198
864	2400065	392.101019788524	0.98901098901099
864	2432861	397.06058925358	0.97826086956522
864	2433284	397.090550710792	0.98913043478261
864	2437056	397.72641325031	0.97849462365591
864	2437520	397.764804707522	0.98924731182796
864	2438023	397.959534973743	0.97872340425532
864	2439030	398.006786430955	0.98936170212766
864	2453314	400.493199202658	0.97894736842105
864	2453668	400.52732065987	0.98947368421053
864	2460279	401.506903167024	0.97916666666667
864	2461366	401.550844624236	0.98958333333333
864	2478628	404.366250151467	0.97938144329897
864	2478972	404.399411608679	0.98969072164948
864	2510184	409.897805332312	0.97959183673469
864	2510424	409.929366789524	0.98979591836735
864	2519298	411.200658651718	0.97979797979798
864	2519685	411.23350010893	0.98989898989899
864	2526038	412.364052538057	0.98
864	2526719	412.411193995269	0.99
