file 15018013 1493055957                                        
version 2
run DSME-0-20170424-17:41:54-17689
attr beaconInterval 10s
attr configname DSME
attr datetime 20170424-17:41:54
attr experiment DSME
attr inifile simulations/omnetpp.ini
attr iterationvars "$packetLength=76B, $sendInt=2, $beaconInterval=10s, $0=10s/2, $1=3 * 10s"
attr iterationvars2 "$packetLength=76B, $sendInt=2, $beaconInterval=10s, $0=10s/2, $1=3 * 10s, $repetition=0"
attr measurement "$packetLength=76B, $sendInt=2, $beaconInterval=10s, $0=10s/2, $1=3 * 10s"
attr network multi_gateway.Net802154MultiGateway
attr packetLength 76B
attr processid 17689
attr repetition 0
attr replication #0
attr resultdir ../results
attr runnumber 0
attr seedset 0
attr sendInt 2
param **.configurator.addStaticRoutes false
param **.dumpRoutes false
param **.dumpTopology false
param **.host[*].**.gpsr.beaconInterval "${beaconInterval = 10s}"
param **.host[*].**.gpsr.maxJitter ${$beaconInterval/2}
param **.host[*].**.gpsr.neighborValidityInterval "${3 * $beaconInterval}"
param **.host[*].**.gpsr.positionByteLength "2 B"
param **.host[*].**.gpsr.routingStrategy "\"StraightestPath\""
param **.host[*].**.trafficgen.continueSendingDummyPackets true
param **.host[*].**.trafficgen.coolDownDuration 15s
param **.host[*].**.trafficgen.destAddresses "\"host[0].wrappedHost(modulepath)\""
param **.host[*].**.trafficgen.packetLength "${packetLength = 76B}"
param **.host[*].**.trafficgen.sendInterval "exponential(${sendInt=1.0..2.5 step 0.25}s)"
param **.host[*].**.trafficgen.startTime 30s
param **.host[*].**.trafficgen.warmUpDuration 190s
param **.host[*].**.wlan[*].mac.macCapReduction false
param **.host[*].**.wlan[*].mac.macDSMEGTSExpirationTime 7
param **.host[*].**.wlan[*].macType "\"DSME\""
param **.host[*].**.wlan[*].radio.receiver.minInterferencePower "-100 dBm"
param **.host[*].hostType "\"SimpleHost\""
param **.host[*].mobilityType "\"StaticConcentricWrappingMobility\""
param **.host[0].**.trafficgen.numPackets 0
param **.host[0].**.wlan[*].mac.isPANCoordinator true
param **.host[1..].**.trafficgen.numPackets 100
param **.numHosts 62
param **.radioMedium.rangeFilter "\"interferenceRange\""
param **.routingTable.addressType "\"modulepath\""
param **.routingTableType "\"GenericRoutingTable\""

vector 17  Net802154MultiGateway.host[0].wrappedHost.wlan[0].mac  uncorruptedFrameReceived:vector(packetBytes)  ETV
attr interpolationmode  none
attr source  uncorruptedFrameReceived
attr title  "uncorrupted frame received, vector(packetBytes)"
vector 71  Net802154MultiGateway.host[3].wrappedHost.wlan[0].mac  uncorruptedFrameReceived:vector(packetBytes)  ETV
attr interpolationmode  none
attr source  uncorruptedFrameReceived
attr title  "uncorrupted frame received, vector(packetBytes)"
vector 107  Net802154MultiGateway.host[5].wrappedHost.wlan[0].mac  uncorruptedFrameReceived:vector(packetBytes)  ETV
attr interpolationmode  none
attr source  uncorruptedFrameReceived
attr title  "uncorrupted frame received, vector(packetBytes)"
vector 251  Net802154MultiGateway.host[13].wrappedHost.wlan[0].mac  uncorruptedFrameReceived:vector(packetBytes)  ETV
attr interpolationmode  none
attr source  uncorruptedFrameReceived
attr title  "uncorrupted frame received, vector(packetBytes)"
vector 233  Net802154MultiGateway.host[12].wrappedHost.wlan[0].mac  uncorruptedFrameReceived:vector(packetBytes)  ETV
attr interpolationmode  none
attr source  uncorruptedFrameReceived
attr title  "uncorrupted frame received, vector(packetBytes)"
vector 269  Net802154MultiGateway.host[14].wrappedHost.wlan[0].mac  uncorruptedFrameReceived:vector(packetBytes)  ETV
attr interpolationmode  none
attr source  uncorruptedFrameReceived
attr title  "uncorrupted frame received, vector(packetBytes)"
vector 52  Net802154MultiGateway.host[2].wrappedHost.wlan[0].mac  corruptedFrameReceived:vector(packetBytes)  ETV
attr interpolationmode  none
attr source  corruptedFrameReceived
attr title  "corrupted frame received, vector(packetBytes)"
vector 124  Net802154MultiGateway.host[6].wrappedHost.wlan[0].mac  corruptedFrameReceived:vector(packetBytes)  ETV
attr interpolationmode  none
attr source  corruptedFrameReceived
attr title  "corrupted frame received, vector(packetBytes)"
vector 214  Net802154MultiGateway.host[11].wrappedHost.wlan[0].mac  corruptedFrameReceived:vector(packetBytes)  ETV
attr interpolationmode  none
attr source  corruptedFrameReceived
attr title  "corrupted frame received, vector(packetBytes)"
vector 287  Net802154MultiGateway.host[15].wrappedHost.wlan[0].mac  uncorruptedFrameReceived:vector(packetBytes)  ETV
attr interpolationmode  none
attr source  uncorruptedFrameReceived
attr title  "uncorrupted frame received, vector(packetBytes)"
vector 35  Net802154MultiGateway.host[1].wrappedHost.wlan[0].mac  uncorruptedFrameReceived:vector(packetBytes)  ETV
attr interpolationmode  none
attr source  uncorruptedFrameReceived
attr title  "uncorrupted frame received, vector(packetBytes)"
vector 53  Net802154MultiGateway.host[2].wrappedHost.wlan[0].mac  uncorruptedFrameReceived:vector(packetBytes)  ETV
attr interpolationmode  none
attr source  uncorruptedFrameReceived
attr title  "uncorrupted frame received, vector(packetBytes)"
vector 89  Net802154MultiGateway.host[4].wrappedHost.wlan[0].mac  uncorruptedFrameReceived:vector(packetBytes)  ETV
attr interpolationmode  none
attr source  uncorruptedFrameReceived
attr title  "uncorrupted frame received, vector(packetBytes)"
vector 125  Net802154MultiGateway.host[6].wrappedHost.wlan[0].mac  uncorruptedFrameReceived:vector(packetBytes)  ETV
attr interpolationmode  none
attr source  uncorruptedFrameReceived
attr title  "uncorrupted frame received, vector(packetBytes)"
vector 143  Net802154MultiGateway.host[7].wrappedHost.wlan[0].mac  uncorruptedFrameReceived:vector(packetBytes)  ETV
attr interpolationmode  none
attr source  uncorruptedFrameReceived
attr title  "uncorrupted frame received, vector(packetBytes)"
vector 683  Net802154MultiGateway.host[37].wrappedHost.wlan[0].mac  uncorruptedFrameReceived:vector(packetBytes)  ETV
attr interpolationmode  none
attr source  uncorruptedFrameReceived
attr title  "uncorrupted frame received, vector(packetBytes)"
vector 377  Net802154MultiGateway.host[20].wrappedHost.wlan[0].mac  uncorruptedFrameReceived:vector(packetBytes)  ETV
attr interpolationmode  none
attr source  uncorruptedFrameReceived
attr title  "uncorrupted frame received, vector(packetBytes)"
vector 665  Net802154MultiGateway.host[36].wrappedHost.wlan[0].mac  uncorruptedFrameReceived:vector(packetBytes)  ETV
attr interpolationmode  none
attr source  uncorruptedFrameReceived
attr title  "uncorrupted frame received, vector(packetBytes)"
vector 701  Net802154MultiGateway.host[38].wrappedHost.wlan[0].mac  uncorruptedFrameReceived:vector(packetBytes)  ETV
attr interpolationmode  none
attr source  uncorruptedFrameReceived
attr title  "uncorrupted frame received, vector(packetBytes)"
vector 1115  Net802154MultiGateway.host[61].wrappedHost.wlan[0].mac  uncorruptedFrameReceived:vector(packetBytes)  ETV
attr interpolationmode  none
attr source  uncorruptedFrameReceived
attr title  "uncorrupted frame received, vector(packetBytes)"
vector 161  Net802154MultiGateway.host[8].wrappedHost.wlan[0].mac  uncorruptedFrameReceived:vector(packetBytes)  ETV
attr interpolationmode  none
attr source  uncorruptedFrameReceived
attr title  "uncorrupted frame received, vector(packetBytes)"
vector 341  Net802154MultiGateway.host[18].wrappedHost.wlan[0].mac  uncorruptedFrameReceived:vector(packetBytes)  ETV
attr interpolationmode  none
attr source  uncorruptedFrameReceived
attr title  "uncorrupted frame received, vector(packetBytes)"
vector 809  Net802154MultiGateway.host[44].wrappedHost.wlan[0].mac  uncorruptedFrameReceived:vector(packetBytes)  ETV
attr interpolationmode  none
attr source  uncorruptedFrameReceived
attr title  "uncorrupted frame received, vector(packetBytes)"
vector 845  Net802154MultiGateway.host[46].wrappedHost.wlan[0].mac  uncorruptedFrameReceived:vector(packetBytes)  ETV
attr interpolationmode  none
attr source  uncorruptedFrameReceived
attr title  "uncorrupted frame received, vector(packetBytes)"
vector 467  Net802154MultiGateway.host[25].wrappedHost.wlan[0].mac  uncorruptedFrameReceived:vector(packetBytes)  ETV
attr interpolationmode  none
attr source  uncorruptedFrameReceived
attr title  "uncorrupted frame received, vector(packetBytes)"
vector 449  Net802154MultiGateway.host[24].wrappedHost.wlan[0].mac  uncorruptedFrameReceived:vector(packetBytes)  ETV
attr interpolationmode  none
attr source  uncorruptedFrameReceived
attr title  "uncorrupted frame received, vector(packetBytes)"
vector 484  Net802154MultiGateway.host[26].wrappedHost.wlan[0].mac  corruptedFrameReceived:vector(packetBytes)  ETV
attr interpolationmode  none
attr source  corruptedFrameReceived
attr title  "corrupted frame received, vector(packetBytes)"
vector 1079  Net802154MultiGateway.host[59].wrappedHost.wlan[0].mac  uncorruptedFrameReceived:vector(packetBytes)  ETV
attr interpolationmode  none
attr source  uncorruptedFrameReceived
attr title  "uncorrupted frame received, vector(packetBytes)"
vector 629  Net802154MultiGateway.host[34].wrappedHost.wlan[0].mac  uncorruptedFrameReceived:vector(packetBytes)  ETV
attr interpolationmode  none
attr source  uncorruptedFrameReceived
attr title  "uncorrupted frame received, vector(packetBytes)"
vector 1097  Net802154MultiGateway.host[60].wrappedHost.wlan[0].mac  uncorruptedFrameReceived:vector(packetBytes)  ETV
attr interpolationmode  none
attr source  uncorruptedFrameReceived
attr title  "uncorrupted frame received, vector(packetBytes)"
vector 323  Net802154MultiGateway.host[17].wrappedHost.wlan[0].mac  uncorruptedFrameReceived:vector(packetBytes)  ETV
attr interpolationmode  none
attr source  uncorruptedFrameReceived
attr title  "uncorrupted frame received, vector(packetBytes)"
vector 1061  Net802154MultiGateway.host[58].wrappedHost.wlan[0].mac  uncorruptedFrameReceived:vector(packetBytes)  ETV
attr interpolationmode  none
attr source  uncorruptedFrameReceived
attr title  "uncorrupted frame received, vector(packetBytes)"
vector 1114  Net802154MultiGateway.host[61].wrappedHost.wlan[0].mac  corruptedFrameReceived:vector(packetBytes)  ETV
attr interpolationmode  none
attr source  corruptedFrameReceived
attr title  "corrupted frame received, vector(packetBytes)"
vector 286  Net802154MultiGateway.host[15].wrappedHost.wlan[0].mac  corruptedFrameReceived:vector(packetBytes)  ETV
attr interpolationmode  none
attr source  corruptedFrameReceived
attr title  "corrupted frame received, vector(packetBytes)"
vector 215  Net802154MultiGateway.host[11].wrappedHost.wlan[0].mac  uncorruptedFrameReceived:vector(packetBytes)  ETV
attr interpolationmode  none
attr source  uncorruptedFrameReceived
attr title  "uncorrupted frame received, vector(packetBytes)"
vector 305  Net802154MultiGateway.host[16].wrappedHost.wlan[0].mac  uncorruptedFrameReceived:vector(packetBytes)  ETV
attr interpolationmode  none
attr source  uncorruptedFrameReceived
attr title  "uncorrupted frame received, vector(packetBytes)"
vector 197  Net802154MultiGateway.host[10].wrappedHost.wlan[0].mac  uncorruptedFrameReceived:vector(packetBytes)  ETV
attr interpolationmode  none
attr source  uncorruptedFrameReceived
attr title  "uncorrupted frame received, vector(packetBytes)"
vector 178  Net802154MultiGateway.host[9].wrappedHost.wlan[0].mac  corruptedFrameReceived:vector(packetBytes)  ETV
attr interpolationmode  none
attr source  corruptedFrameReceived
attr title  "corrupted frame received, vector(packetBytes)"
vector 250  Net802154MultiGateway.host[13].wrappedHost.wlan[0].mac  corruptedFrameReceived:vector(packetBytes)  ETV
attr interpolationmode  none
attr source  corruptedFrameReceived
attr title  "corrupted frame received, vector(packetBytes)"
vector 70  Net802154MultiGateway.host[3].wrappedHost.wlan[0].mac  corruptedFrameReceived:vector(packetBytes)  ETV
attr interpolationmode  none
attr source  corruptedFrameReceived
attr title  "corrupted frame received, vector(packetBytes)"
vector 106  Net802154MultiGateway.host[5].wrappedHost.wlan[0].mac  corruptedFrameReceived:vector(packetBytes)  ETV
attr interpolationmode  none
attr source  corruptedFrameReceived
attr title  "corrupted frame received, vector(packetBytes)"
vector 322  Net802154MultiGateway.host[17].wrappedHost.wlan[0].mac  corruptedFrameReceived:vector(packetBytes)  ETV
attr interpolationmode  none
attr source  corruptedFrameReceived
attr title  "corrupted frame received, vector(packetBytes)"
vector 34  Net802154MultiGateway.host[1].wrappedHost.wlan[0].mac  corruptedFrameReceived:vector(packetBytes)  ETV
attr interpolationmode  none
attr source  corruptedFrameReceived
attr title  "corrupted frame received, vector(packetBytes)"
vector 179  Net802154MultiGateway.host[9].wrappedHost.wlan[0].mac  uncorruptedFrameReceived:vector(packetBytes)  ETV
attr interpolationmode  none
attr source  uncorruptedFrameReceived
attr title  "uncorrupted frame received, vector(packetBytes)"
vector 359  Net802154MultiGateway.host[19].wrappedHost.wlan[0].mac  uncorruptedFrameReceived:vector(packetBytes)  ETV
attr interpolationmode  none
attr source  uncorruptedFrameReceived
attr title  "uncorrupted frame received, vector(packetBytes)"
vector 395  Net802154MultiGateway.host[21].wrappedHost.wlan[0].mac  uncorruptedFrameReceived:vector(packetBytes)  ETV
attr interpolationmode  none
attr source  uncorruptedFrameReceived
attr title  "uncorrupted frame received, vector(packetBytes)"
vector 719  Net802154MultiGateway.host[39].wrappedHost.wlan[0].mac  uncorruptedFrameReceived:vector(packetBytes)  ETV
attr interpolationmode  none
attr source  uncorruptedFrameReceived
attr title  "uncorrupted frame received, vector(packetBytes)"
vector 736  Net802154MultiGateway.host[40].wrappedHost.wlan[0].mac  corruptedFrameReceived:vector(packetBytes)  ETV
attr interpolationmode  none
attr source  corruptedFrameReceived
attr title  "corrupted frame received, vector(packetBytes)"
vector 754  Net802154MultiGateway.host[41].wrappedHost.wlan[0].mac  corruptedFrameReceived:vector(packetBytes)  ETV
attr interpolationmode  none
attr source  corruptedFrameReceived
attr title  "corrupted frame received, vector(packetBytes)"
vector 791  Net802154MultiGateway.host[43].wrappedHost.wlan[0].mac  uncorruptedFrameReceived:vector(packetBytes)  ETV
attr interpolationmode  none
attr source  uncorruptedFrameReceived
attr title  "uncorrupted frame received, vector(packetBytes)"
vector 431  Net802154MultiGateway.host[23].wrappedHost.wlan[0].mac  uncorruptedFrameReceived:vector(packetBytes)  ETV
attr interpolationmode  none
attr source  uncorruptedFrameReceived
attr title  "uncorrupted frame received, vector(packetBytes)"
vector 413  Net802154MultiGateway.host[22].wrappedHost.wlan[0].mac  uncorruptedFrameReceived:vector(packetBytes)  ETV
attr interpolationmode  none
attr source  uncorruptedFrameReceived
attr title  "uncorrupted frame received, vector(packetBytes)"
vector 376  Net802154MultiGateway.host[20].wrappedHost.wlan[0].mac  corruptedFrameReceived:vector(packetBytes)  ETV
attr interpolationmode  none
attr source  corruptedFrameReceived
attr title  "corrupted frame received, vector(packetBytes)"
vector 611  Net802154MultiGateway.host[33].wrappedHost.wlan[0].mac  uncorruptedFrameReceived:vector(packetBytes)  ETV
attr interpolationmode  none
attr source  uncorruptedFrameReceived
attr title  "uncorrupted frame received, vector(packetBytes)"
vector 647  Net802154MultiGateway.host[35].wrappedHost.wlan[0].mac  uncorruptedFrameReceived:vector(packetBytes)  ETV
attr interpolationmode  none
attr source  uncorruptedFrameReceived
attr title  "uncorrupted frame received, vector(packetBytes)"
vector 1043  Net802154MultiGateway.host[57].wrappedHost.wlan[0].mac  uncorruptedFrameReceived:vector(packetBytes)  ETV
attr interpolationmode  none
attr source  uncorruptedFrameReceived
attr title  "uncorrupted frame received, vector(packetBytes)"
vector 340  Net802154MultiGateway.host[18].wrappedHost.wlan[0].mac  corruptedFrameReceived:vector(packetBytes)  ETV
attr interpolationmode  none
attr source  corruptedFrameReceived
attr title  "corrupted frame received, vector(packetBytes)"
vector 827  Net802154MultiGateway.host[45].wrappedHost.wlan[0].mac  uncorruptedFrameReceived:vector(packetBytes)  ETV
attr interpolationmode  none
attr source  uncorruptedFrameReceived
attr title  "uncorrupted frame received, vector(packetBytes)"
vector 430  Net802154MultiGateway.host[23].wrappedHost.wlan[0].mac  corruptedFrameReceived:vector(packetBytes)  ETV
attr interpolationmode  none
attr source  corruptedFrameReceived
attr title  "corrupted frame received, vector(packetBytes)"
vector 664  Net802154MultiGateway.host[36].wrappedHost.wlan[0].mac  corruptedFrameReceived:vector(packetBytes)  ETV
attr interpolationmode  none
attr source  corruptedFrameReceived
attr title  "corrupted frame received, vector(packetBytes)"
vector 953  Net802154MultiGateway.host[52].wrappedHost.wlan[0].mac  uncorruptedFrameReceived:vector(packetBytes)  ETV
attr interpolationmode  none
attr source  uncorruptedFrameReceived
attr title  "uncorrupted frame received, vector(packetBytes)"
vector 539  Net802154MultiGateway.host[29].wrappedHost.wlan[0].mac  uncorruptedFrameReceived:vector(packetBytes)  ETV
attr interpolationmode  none
attr source  uncorruptedFrameReceived
attr title  "uncorrupted frame received, vector(packetBytes)"
vector 575  Net802154MultiGateway.host[31].wrappedHost.wlan[0].mac  uncorruptedFrameReceived:vector(packetBytes)  ETV
attr interpolationmode  none
attr source  uncorruptedFrameReceived
attr title  "uncorrupted frame received, vector(packetBytes)"
vector 971  Net802154MultiGateway.host[53].wrappedHost.wlan[0].mac  uncorruptedFrameReceived:vector(packetBytes)  ETV
attr interpolationmode  none
attr source  uncorruptedFrameReceived
attr title  "uncorrupted frame received, vector(packetBytes)"
vector 934  Net802154MultiGateway.host[51].wrappedHost.wlan[0].mac  corruptedFrameReceived:vector(packetBytes)  ETV
attr interpolationmode  none
attr source  corruptedFrameReceived
attr title  "corrupted frame received, vector(packetBytes)"
vector 988  Net802154MultiGateway.host[54].wrappedHost.wlan[0].mac  corruptedFrameReceived:vector(packetBytes)  ETV
attr interpolationmode  none
attr source  corruptedFrameReceived
attr title  "corrupted frame received, vector(packetBytes)"
vector 755  Net802154MultiGateway.host[41].wrappedHost.wlan[0].mac  uncorruptedFrameReceived:vector(packetBytes)  ETV
attr interpolationmode  none
attr source  uncorruptedFrameReceived
attr title  "uncorrupted frame received, vector(packetBytes)"
vector 412  Net802154MultiGateway.host[22].wrappedHost.wlan[0].mac  corruptedFrameReceived:vector(packetBytes)  ETV
attr interpolationmode  none
attr source  corruptedFrameReceived
attr title  "corrupted frame received, vector(packetBytes)"
vector 935  Net802154MultiGateway.host[51].wrappedHost.wlan[0].mac  uncorruptedFrameReceived:vector(packetBytes)  ETV
attr interpolationmode  none
attr source  uncorruptedFrameReceived
attr title  "uncorrupted frame received, vector(packetBytes)"
vector 557  Net802154MultiGateway.host[30].wrappedHost.wlan[0].mac  uncorruptedFrameReceived:vector(packetBytes)  ETV
attr interpolationmode  none
attr source  uncorruptedFrameReceived
attr title  "uncorrupted frame received, vector(packetBytes)"
vector 574  Net802154MultiGateway.host[31].wrappedHost.wlan[0].mac  corruptedFrameReceived:vector(packetBytes)  ETV
attr interpolationmode  none
attr source  corruptedFrameReceived
attr title  "corrupted frame received, vector(packetBytes)"
vector 881  Net802154MultiGateway.host[48].wrappedHost.wlan[0].mac  uncorruptedFrameReceived:vector(packetBytes)  ETV
attr interpolationmode  none
attr source  uncorruptedFrameReceived
attr title  "uncorrupted frame received, vector(packetBytes)"
vector 485  Net802154MultiGateway.host[26].wrappedHost.wlan[0].mac  uncorruptedFrameReceived:vector(packetBytes)  ETV
attr interpolationmode  none
attr source  uncorruptedFrameReceived
attr title  "uncorrupted frame received, vector(packetBytes)"
vector 503  Net802154MultiGateway.host[27].wrappedHost.wlan[0].mac  uncorruptedFrameReceived:vector(packetBytes)  ETV
attr interpolationmode  none
attr source  uncorruptedFrameReceived
attr title  "uncorrupted frame received, vector(packetBytes)"
vector 466  Net802154MultiGateway.host[25].wrappedHost.wlan[0].mac  corruptedFrameReceived:vector(packetBytes)  ETV
attr interpolationmode  none
attr source  corruptedFrameReceived
attr title  "corrupted frame received, vector(packetBytes)"
vector 646  Net802154MultiGateway.host[35].wrappedHost.wlan[0].mac  corruptedFrameReceived:vector(packetBytes)  ETV
attr interpolationmode  none
attr source  corruptedFrameReceived
attr title  "corrupted frame received, vector(packetBytes)"
vector 1007  Net802154MultiGateway.host[55].wrappedHost.wlan[0].mac  uncorruptedFrameReceived:vector(packetBytes)  ETV
attr interpolationmode  none
attr source  uncorruptedFrameReceived
attr title  "uncorrupted frame received, vector(packetBytes)"
vector 863  Net802154MultiGateway.host[47].wrappedHost.wlan[0].mac  uncorruptedFrameReceived:vector(packetBytes)  ETV
attr interpolationmode  none
attr source  uncorruptedFrameReceived
attr title  "uncorrupted frame received, vector(packetBytes)"
vector 593  Net802154MultiGateway.host[32].wrappedHost.wlan[0].mac  uncorruptedFrameReceived:vector(packetBytes)  ETV
attr interpolationmode  none
attr source  uncorruptedFrameReceived
attr title  "uncorrupted frame received, vector(packetBytes)"
vector 826  Net802154MultiGateway.host[45].wrappedHost.wlan[0].mac  corruptedFrameReceived:vector(packetBytes)  ETV
attr interpolationmode  none
attr source  corruptedFrameReceived
attr title  "corrupted frame received, vector(packetBytes)"
vector 899  Net802154MultiGateway.host[49].wrappedHost.wlan[0].mac  uncorruptedFrameReceived:vector(packetBytes)  ETV
attr interpolationmode  none
attr source  uncorruptedFrameReceived
attr title  "uncorrupted frame received, vector(packetBytes)"
vector 521  Net802154MultiGateway.host[28].wrappedHost.wlan[0].mac  uncorruptedFrameReceived:vector(packetBytes)  ETV
attr interpolationmode  none
attr source  uncorruptedFrameReceived
attr title  "uncorrupted frame received, vector(packetBytes)"
vector 87  Net802154MultiGateway.host[4].wrappedHost.wlan[0].mac  broadDataSentDown:vector(packetBytes)  ETV
attr interpolationmode  none
attr source  broadcastDataSentDown
attr title  "broadcast packet sent down of type DATA, vector(packetBytes)"
vector 69  Net802154MultiGateway.host[3].wrappedHost.wlan[0].mac  broadDataSentDown:vector(packetBytes)  ETV
attr interpolationmode  none
attr source  broadcastDataSentDown
attr title  "broadcast packet sent down of type DATA, vector(packetBytes)"
vector 304  Net802154MultiGateway.host[16].wrappedHost.wlan[0].mac  corruptedFrameReceived:vector(packetBytes)  ETV
attr interpolationmode  none
attr source  corruptedFrameReceived
attr title  "corrupted frame received, vector(packetBytes)"
vector 773  Net802154MultiGateway.host[42].wrappedHost.wlan[0].mac  uncorruptedFrameReceived:vector(packetBytes)  ETV
attr interpolationmode  none
attr source  uncorruptedFrameReceived
attr title  "uncorrupted frame received, vector(packetBytes)"
vector 737  Net802154MultiGateway.host[40].wrappedHost.wlan[0].mac  uncorruptedFrameReceived:vector(packetBytes)  ETV
attr interpolationmode  none
attr source  uncorruptedFrameReceived
attr title  "uncorrupted frame received, vector(packetBytes)"
vector 88  Net802154MultiGateway.host[4].wrappedHost.wlan[0].mac  corruptedFrameReceived:vector(packetBytes)  ETV
attr interpolationmode  none
attr source  corruptedFrameReceived
attr title  "corrupted frame received, vector(packetBytes)"
vector 232  Net802154MultiGateway.host[12].wrappedHost.wlan[0].mac  corruptedFrameReceived:vector(packetBytes)  ETV
attr interpolationmode  none
attr source  corruptedFrameReceived
attr title  "corrupted frame received, vector(packetBytes)"
vector 520  Net802154MultiGateway.host[28].wrappedHost.wlan[0].mac  corruptedFrameReceived:vector(packetBytes)  ETV
attr interpolationmode  none
attr source  corruptedFrameReceived
attr title  "corrupted frame received, vector(packetBytes)"
vector 249  Net802154MultiGateway.host[13].wrappedHost.wlan[0].mac  broadDataSentDown:vector(packetBytes)  ETV
attr interpolationmode  none
attr source  broadcastDataSentDown
attr title  "broadcast packet sent down of type DATA, vector(packetBytes)"
vector 15  Net802154MultiGateway.host[0].wrappedHost.wlan[0].mac  broadDataSentDown:vector(packetBytes)  ETV
attr interpolationmode  none
attr source  broadcastDataSentDown
attr title  "broadcast packet sent down of type DATA, vector(packetBytes)"
vector 844  Net802154MultiGateway.host[46].wrappedHost.wlan[0].mac  corruptedFrameReceived:vector(packetBytes)  ETV
attr interpolationmode  none
attr source  corruptedFrameReceived
attr title  "corrupted frame received, vector(packetBytes)"
vector 1025  Net802154MultiGateway.host[56].wrappedHost.wlan[0].mac  uncorruptedFrameReceived:vector(packetBytes)  ETV
attr interpolationmode  none
attr source  uncorruptedFrameReceived
attr title  "uncorrupted frame received, vector(packetBytes)"
vector 1006  Net802154MultiGateway.host[55].wrappedHost.wlan[0].mac  corruptedFrameReceived:vector(packetBytes)  ETV
attr interpolationmode  none
attr source  corruptedFrameReceived
attr title  "corrupted frame received, vector(packetBytes)"
vector 142  Net802154MultiGateway.host[7].wrappedHost.wlan[0].mac  corruptedFrameReceived:vector(packetBytes)  ETV
attr interpolationmode  none
attr source  corruptedFrameReceived
attr title  "corrupted frame received, vector(packetBytes)"
vector 917  Net802154MultiGateway.host[50].wrappedHost.wlan[0].mac  uncorruptedFrameReceived:vector(packetBytes)  ETV
attr interpolationmode  none
attr source  uncorruptedFrameReceived
attr title  "uncorrupted frame received, vector(packetBytes)"
vector 989  Net802154MultiGateway.host[54].wrappedHost.wlan[0].mac  uncorruptedFrameReceived:vector(packetBytes)  ETV
attr interpolationmode  none
attr source  uncorruptedFrameReceived
attr title  "uncorrupted frame received, vector(packetBytes)"
vector 952  Net802154MultiGateway.host[52].wrappedHost.wlan[0].mac  corruptedFrameReceived:vector(packetBytes)  ETV
attr interpolationmode  none
attr source  corruptedFrameReceived
attr title  "corrupted frame received, vector(packetBytes)"
vector 808  Net802154MultiGateway.host[44].wrappedHost.wlan[0].mac  corruptedFrameReceived:vector(packetBytes)  ETV
attr interpolationmode  none
attr source  corruptedFrameReceived
attr title  "corrupted frame received, vector(packetBytes)"
vector 196  Net802154MultiGateway.host[10].wrappedHost.wlan[0].mac  corruptedFrameReceived:vector(packetBytes)  ETV
attr interpolationmode  none
attr source  corruptedFrameReceived
attr title  "corrupted frame received, vector(packetBytes)"
vector 862  Net802154MultiGateway.host[47].wrappedHost.wlan[0].mac  corruptedFrameReceived:vector(packetBytes)  ETV
attr interpolationmode  none
attr source  corruptedFrameReceived
attr title  "corrupted frame received, vector(packetBytes)"
vector 556  Net802154MultiGateway.host[30].wrappedHost.wlan[0].mac  corruptedFrameReceived:vector(packetBytes)  ETV
attr interpolationmode  none
attr source  corruptedFrameReceived
attr title  "corrupted frame received, vector(packetBytes)"
vector 628  Net802154MultiGateway.host[34].wrappedHost.wlan[0].mac  corruptedFrameReceived:vector(packetBytes)  ETV
attr interpolationmode  none
attr source  corruptedFrameReceived
attr title  "corrupted frame received, vector(packetBytes)"
vector 303  Net802154MultiGateway.host[16].wrappedHost.wlan[0].mac  broadDataSentDown:vector(packetBytes)  ETV
attr interpolationmode  none
attr source  broadcastDataSentDown
attr title  "broadcast packet sent down of type DATA, vector(packetBytes)"
vector 267  Net802154MultiGateway.host[14].wrappedHost.wlan[0].mac  broadDataSentDown:vector(packetBytes)  ETV
attr interpolationmode  none
attr source  broadcastDataSentDown
attr title  "broadcast packet sent down of type DATA, vector(packetBytes)"
vector 555  Net802154MultiGateway.host[30].wrappedHost.wlan[0].mac  broadDataSentDown:vector(packetBytes)  ETV
attr interpolationmode  none
attr source  broadcastDataSentDown
attr title  "broadcast packet sent down of type DATA, vector(packetBytes)"
vector 447  Net802154MultiGateway.host[24].wrappedHost.wlan[0].mac  broadDataSentDown:vector(packetBytes)  ETV
attr interpolationmode  none
attr source  broadcastDataSentDown
attr title  "broadcast packet sent down of type DATA, vector(packetBytes)"
vector 33  Net802154MultiGateway.host[1].wrappedHost.wlan[0].mac  broadDataSentDown:vector(packetBytes)  ETV
attr interpolationmode  none
attr source  broadcastDataSentDown
attr title  "broadcast packet sent down of type DATA, vector(packetBytes)"
vector 880  Net802154MultiGateway.host[48].wrappedHost.wlan[0].mac  corruptedFrameReceived:vector(packetBytes)  ETV
attr interpolationmode  none
attr source  corruptedFrameReceived
attr title  "corrupted frame received, vector(packetBytes)"
vector 123  Net802154MultiGateway.host[6].wrappedHost.wlan[0].mac  broadDataSentDown:vector(packetBytes)  ETV
attr interpolationmode  none
attr source  broadcastDataSentDown
attr title  "broadcast packet sent down of type DATA, vector(packetBytes)"
vector 105  Net802154MultiGateway.host[5].wrappedHost.wlan[0].mac  broadDataSentDown:vector(packetBytes)  ETV
attr interpolationmode  none
attr source  broadcastDataSentDown
attr title  "broadcast packet sent down of type DATA, vector(packetBytes)"
vector 358  Net802154MultiGateway.host[19].wrappedHost.wlan[0].mac  corruptedFrameReceived:vector(packetBytes)  ETV
attr interpolationmode  none
attr source  corruptedFrameReceived
attr title  "corrupted frame received, vector(packetBytes)"
vector 700  Net802154MultiGateway.host[38].wrappedHost.wlan[0].mac  corruptedFrameReceived:vector(packetBytes)  ETV
attr interpolationmode  none
attr source  corruptedFrameReceived
attr title  "corrupted frame received, vector(packetBytes)"
vector 1078  Net802154MultiGateway.host[59].wrappedHost.wlan[0].mac  corruptedFrameReceived:vector(packetBytes)  ETV
attr interpolationmode  none
attr source  corruptedFrameReceived
attr title  "corrupted frame received, vector(packetBytes)"
vector 213  Net802154MultiGateway.host[11].wrappedHost.wlan[0].mac  broadDataSentDown:vector(packetBytes)  ETV
attr interpolationmode  none
attr source  broadcastDataSentDown
attr title  "broadcast packet sent down of type DATA, vector(packetBytes)"
vector 141  Net802154MultiGateway.host[7].wrappedHost.wlan[0].mac  broadDataSentDown:vector(packetBytes)  ETV
attr interpolationmode  none
attr source  broadcastDataSentDown
attr title  "broadcast packet sent down of type DATA, vector(packetBytes)"
vector 448  Net802154MultiGateway.host[24].wrappedHost.wlan[0].mac  corruptedFrameReceived:vector(packetBytes)  ETV
attr interpolationmode  none
attr source  corruptedFrameReceived
attr title  "corrupted frame received, vector(packetBytes)"
vector 610  Net802154MultiGateway.host[33].wrappedHost.wlan[0].mac  corruptedFrameReceived:vector(packetBytes)  ETV
attr interpolationmode  none
attr source  corruptedFrameReceived
attr title  "corrupted frame received, vector(packetBytes)"
vector 160  Net802154MultiGateway.host[8].wrappedHost.wlan[0].mac  corruptedFrameReceived:vector(packetBytes)  ETV
attr interpolationmode  none
attr source  corruptedFrameReceived
attr title  "corrupted frame received, vector(packetBytes)"
vector 1060  Net802154MultiGateway.host[58].wrappedHost.wlan[0].mac  corruptedFrameReceived:vector(packetBytes)  ETV
attr interpolationmode  none
attr source  corruptedFrameReceived
attr title  "corrupted frame received, vector(packetBytes)"
vector 268  Net802154MultiGateway.host[14].wrappedHost.wlan[0].mac  corruptedFrameReceived:vector(packetBytes)  ETV
attr interpolationmode  none
attr source  corruptedFrameReceived
attr title  "corrupted frame received, vector(packetBytes)"
vector 394  Net802154MultiGateway.host[21].wrappedHost.wlan[0].mac  corruptedFrameReceived:vector(packetBytes)  ETV
attr interpolationmode  none
attr source  corruptedFrameReceived
attr title  "corrupted frame received, vector(packetBytes)"
vector 916  Net802154MultiGateway.host[50].wrappedHost.wlan[0].mac  corruptedFrameReceived:vector(packetBytes)  ETV
attr interpolationmode  none
attr source  corruptedFrameReceived
attr title  "corrupted frame received, vector(packetBytes)"
vector 9  Net802154MultiGateway.host[0].wrappedHost.trafficgen  sentDummyPk:vector(packetBytes)  ETV
attr interpolationmode  none
attr source  sentDummyPk
attr title  "dummy packets sent, vector(packetBytes)"
vector 27  Net802154MultiGateway.host[1].wrappedHost.trafficgen  sentDummyPk:vector(packetBytes)  ETV
attr interpolationmode  none
attr source  sentDummyPk
attr title  "dummy packets sent, vector(packetBytes)"
vector 45  Net802154MultiGateway.host[2].wrappedHost.trafficgen  sentDummyPk:vector(packetBytes)  ETV
attr interpolationmode  none
attr source  sentDummyPk
attr title  "dummy packets sent, vector(packetBytes)"
vector 63  Net802154MultiGateway.host[3].wrappedHost.trafficgen  sentDummyPk:vector(packetBytes)  ETV
attr interpolationmode  none
attr source  sentDummyPk
attr title  "dummy packets sent, vector(packetBytes)"
vector 81  Net802154MultiGateway.host[4].wrappedHost.trafficgen  sentDummyPk:vector(packetBytes)  ETV
attr interpolationmode  none
attr source  sentDummyPk
attr title  "dummy packets sent, vector(packetBytes)"
vector 99  Net802154MultiGateway.host[5].wrappedHost.trafficgen  sentDummyPk:vector(packetBytes)  ETV
attr interpolationmode  none
attr source  sentDummyPk
attr title  "dummy packets sent, vector(packetBytes)"
vector 117  Net802154MultiGateway.host[6].wrappedHost.trafficgen  sentDummyPk:vector(packetBytes)  ETV
attr interpolationmode  none
attr source  sentDummyPk
attr title  "dummy packets sent, vector(packetBytes)"
vector 135  Net802154MultiGateway.host[7].wrappedHost.trafficgen  sentDummyPk:vector(packetBytes)  ETV
attr interpolationmode  none
attr source  sentDummyPk
attr title  "dummy packets sent, vector(packetBytes)"
vector 153  Net802154MultiGateway.host[8].wrappedHost.trafficgen  sentDummyPk:vector(packetBytes)  ETV
attr interpolationmode  none
attr source  sentDummyPk
attr title  "dummy packets sent, vector(packetBytes)"
vector 171  Net802154MultiGateway.host[9].wrappedHost.trafficgen  sentDummyPk:vector(packetBytes)  ETV
attr interpolationmode  none
attr source  sentDummyPk
attr title  "dummy packets sent, vector(packetBytes)"
vector 189  Net802154MultiGateway.host[10].wrappedHost.trafficgen  sentDummyPk:vector(packetBytes)  ETV
attr interpolationmode  none
attr source  sentDummyPk
attr title  "dummy packets sent, vector(packetBytes)"
vector 207  Net802154MultiGateway.host[11].wrappedHost.trafficgen  sentDummyPk:vector(packetBytes)  ETV
attr interpolationmode  none
attr source  sentDummyPk
attr title  "dummy packets sent, vector(packetBytes)"
vector 225  Net802154MultiGateway.host[12].wrappedHost.trafficgen  sentDummyPk:vector(packetBytes)  ETV
attr interpolationmode  none
attr source  sentDummyPk
attr title  "dummy packets sent, vector(packetBytes)"
vector 243  Net802154MultiGateway.host[13].wrappedHost.trafficgen  sentDummyPk:vector(packetBytes)  ETV
attr interpolationmode  none
attr source  sentDummyPk
attr title  "dummy packets sent, vector(packetBytes)"
vector 261  Net802154MultiGateway.host[14].wrappedHost.trafficgen  sentDummyPk:vector(packetBytes)  ETV
attr interpolationmode  none
attr source  sentDummyPk
attr title  "dummy packets sent, vector(packetBytes)"
vector 279  Net802154MultiGateway.host[15].wrappedHost.trafficgen  sentDummyPk:vector(packetBytes)  ETV
attr interpolationmode  none
attr source  sentDummyPk
attr title  "dummy packets sent, vector(packetBytes)"
vector 297  Net802154MultiGateway.host[16].wrappedHost.trafficgen  sentDummyPk:vector(packetBytes)  ETV
attr interpolationmode  none
attr source  sentDummyPk
attr title  "dummy packets sent, vector(packetBytes)"
vector 315  Net802154MultiGateway.host[17].wrappedHost.trafficgen  sentDummyPk:vector(packetBytes)  ETV
attr interpolationmode  none
attr source  sentDummyPk
attr title  "dummy packets sent, vector(packetBytes)"
vector 333  Net802154MultiGateway.host[18].wrappedHost.trafficgen  sentDummyPk:vector(packetBytes)  ETV
attr interpolationmode  none
attr source  sentDummyPk
attr title  "dummy packets sent, vector(packetBytes)"
vector 351  Net802154MultiGateway.host[19].wrappedHost.trafficgen  sentDummyPk:vector(packetBytes)  ETV
attr interpolationmode  none
attr source  sentDummyPk
attr title  "dummy packets sent, vector(packetBytes)"
vector 369  Net802154MultiGateway.host[20].wrappedHost.trafficgen  sentDummyPk:vector(packetBytes)  ETV
attr interpolationmode  none
attr source  sentDummyPk
attr title  "dummy packets sent, vector(packetBytes)"
vector 387  Net802154MultiGateway.host[21].wrappedHost.trafficgen  sentDummyPk:vector(packetBytes)  ETV
attr interpolationmode  none
attr source  sentDummyPk
attr title  "dummy packets sent, vector(packetBytes)"
vector 405  Net802154MultiGateway.host[22].wrappedHost.trafficgen  sentDummyPk:vector(packetBytes)  ETV
attr interpolationmode  none
attr source  sentDummyPk
attr title  "dummy packets sent, vector(packetBytes)"
vector 423  Net802154MultiGateway.host[23].wrappedHost.trafficgen  sentDummyPk:vector(packetBytes)  ETV
attr interpolationmode  none
attr source  sentDummyPk
attr title  "dummy packets sent, vector(packetBytes)"
vector 441  Net802154MultiGateway.host[24].wrappedHost.trafficgen  sentDummyPk:vector(packetBytes)  ETV
attr interpolationmode  none
attr source  sentDummyPk
attr title  "dummy packets sent, vector(packetBytes)"
vector 459  Net802154MultiGateway.host[25].wrappedHost.trafficgen  sentDummyPk:vector(packetBytes)  ETV
attr interpolationmode  none
attr source  sentDummyPk
attr title  "dummy packets sent, vector(packetBytes)"
vector 477  Net802154MultiGateway.host[26].wrappedHost.trafficgen  sentDummyPk:vector(packetBytes)  ETV
attr interpolationmode  none
attr source  sentDummyPk
attr title  "dummy packets sent, vector(packetBytes)"
vector 495  Net802154MultiGateway.host[27].wrappedHost.trafficgen  sentDummyPk:vector(packetBytes)  ETV
attr interpolationmode  none
attr source  sentDummyPk
attr title  "dummy packets sent, vector(packetBytes)"
vector 513  Net802154MultiGateway.host[28].wrappedHost.trafficgen  sentDummyPk:vector(packetBytes)  ETV
attr interpolationmode  none
attr source  sentDummyPk
attr title  "dummy packets sent, vector(packetBytes)"
vector 531  Net802154MultiGateway.host[29].wrappedHost.trafficgen  sentDummyPk:vector(packetBytes)  ETV
attr interpolationmode  none
attr source  sentDummyPk
attr title  "dummy packets sent, vector(packetBytes)"
vector 549  Net802154MultiGateway.host[30].wrappedHost.trafficgen  sentDummyPk:vector(packetBytes)  ETV
attr interpolationmode  none
attr source  sentDummyPk
attr title  "dummy packets sent, vector(packetBytes)"
vector 567  Net802154MultiGateway.host[31].wrappedHost.trafficgen  sentDummyPk:vector(packetBytes)  ETV
attr interpolationmode  none
attr source  sentDummyPk
attr title  "dummy packets sent, vector(packetBytes)"
vector 585  Net802154MultiGateway.host[32].wrappedHost.trafficgen  sentDummyPk:vector(packetBytes)  ETV
attr interpolationmode  none
attr source  sentDummyPk
attr title  "dummy packets sent, vector(packetBytes)"
vector 603  Net802154MultiGateway.host[33].wrappedHost.trafficgen  sentDummyPk:vector(packetBytes)  ETV
attr interpolationmode  none
attr source  sentDummyPk
attr title  "dummy packets sent, vector(packetBytes)"
vector 621  Net802154MultiGateway.host[34].wrappedHost.trafficgen  sentDummyPk:vector(packetBytes)  ETV
attr interpolationmode  none
attr source  sentDummyPk
attr title  "dummy packets sent, vector(packetBytes)"
vector 639  Net802154MultiGateway.host[35].wrappedHost.trafficgen  sentDummyPk:vector(packetBytes)  ETV
attr interpolationmode  none
attr source  sentDummyPk
attr title  "dummy packets sent, vector(packetBytes)"
vector 657  Net802154MultiGateway.host[36].wrappedHost.trafficgen  sentDummyPk:vector(packetBytes)  ETV
attr interpolationmode  none
attr source  sentDummyPk
attr title  "dummy packets sent, vector(packetBytes)"
vector 675  Net802154MultiGateway.host[37].wrappedHost.trafficgen  sentDummyPk:vector(packetBytes)  ETV
attr interpolationmode  none
attr source  sentDummyPk
attr title  "dummy packets sent, vector(packetBytes)"
vector 693  Net802154MultiGateway.host[38].wrappedHost.trafficgen  sentDummyPk:vector(packetBytes)  ETV
attr interpolationmode  none
attr source  sentDummyPk
attr title  "dummy packets sent, vector(packetBytes)"
vector 711  Net802154MultiGateway.host[39].wrappedHost.trafficgen  sentDummyPk:vector(packetBytes)  ETV
attr interpolationmode  none
attr source  sentDummyPk
attr title  "dummy packets sent, vector(packetBytes)"
vector 729  Net802154MultiGateway.host[40].wrappedHost.trafficgen  sentDummyPk:vector(packetBytes)  ETV
attr interpolationmode  none
attr source  sentDummyPk
attr title  "dummy packets sent, vector(packetBytes)"
vector 747  Net802154MultiGateway.host[41].wrappedHost.trafficgen  sentDummyPk:vector(packetBytes)  ETV
attr interpolationmode  none
attr source  sentDummyPk
attr title  "dummy packets sent, vector(packetBytes)"
vector 765  Net802154MultiGateway.host[42].wrappedHost.trafficgen  sentDummyPk:vector(packetBytes)  ETV
attr interpolationmode  none
attr source  sentDummyPk
attr title  "dummy packets sent, vector(packetBytes)"
vector 783  Net802154MultiGateway.host[43].wrappedHost.trafficgen  sentDummyPk:vector(packetBytes)  ETV
attr interpolationmode  none
attr source  sentDummyPk
attr title  "dummy packets sent, vector(packetBytes)"
vector 801  Net802154MultiGateway.host[44].wrappedHost.trafficgen  sentDummyPk:vector(packetBytes)  ETV
attr interpolationmode  none
attr source  sentDummyPk
attr title  "dummy packets sent, vector(packetBytes)"
vector 819  Net802154MultiGateway.host[45].wrappedHost.trafficgen  sentDummyPk:vector(packetBytes)  ETV
attr interpolationmode  none
attr source  sentDummyPk
attr title  "dummy packets sent, vector(packetBytes)"
vector 837  Net802154MultiGateway.host[46].wrappedHost.trafficgen  sentDummyPk:vector(packetBytes)  ETV
attr interpolationmode  none
attr source  sentDummyPk
attr title  "dummy packets sent, vector(packetBytes)"
vector 855  Net802154MultiGateway.host[47].wrappedHost.trafficgen  sentDummyPk:vector(packetBytes)  ETV
attr interpolationmode  none
attr source  sentDummyPk
attr title  "dummy packets sent, vector(packetBytes)"
vector 873  Net802154MultiGateway.host[48].wrappedHost.trafficgen  sentDummyPk:vector(packetBytes)  ETV
attr interpolationmode  none
attr source  sentDummyPk
attr title  "dummy packets sent, vector(packetBytes)"
vector 891  Net802154MultiGateway.host[49].wrappedHost.trafficgen  sentDummyPk:vector(packetBytes)  ETV
attr interpolationmode  none
attr source  sentDummyPk
attr title  "dummy packets sent, vector(packetBytes)"
vector 909  Net802154MultiGateway.host[50].wrappedHost.trafficgen  sentDummyPk:vector(packetBytes)  ETV
attr interpolationmode  none
attr source  sentDummyPk
attr title  "dummy packets sent, vector(packetBytes)"
vector 927  Net802154MultiGateway.host[51].wrappedHost.trafficgen  sentDummyPk:vector(packetBytes)  ETV
attr interpolationmode  none
attr source  sentDummyPk
attr title  "dummy packets sent, vector(packetBytes)"
vector 945  Net802154MultiGateway.host[52].wrappedHost.trafficgen  sentDummyPk:vector(packetBytes)  ETV
attr interpolationmode  none
attr source  sentDummyPk
attr title  "dummy packets sent, vector(packetBytes)"
vector 963  Net802154MultiGateway.host[53].wrappedHost.trafficgen  sentDummyPk:vector(packetBytes)  ETV
attr interpolationmode  none
attr source  sentDummyPk
attr title  "dummy packets sent, vector(packetBytes)"
vector 981  Net802154MultiGateway.host[54].wrappedHost.trafficgen  sentDummyPk:vector(packetBytes)  ETV
attr interpolationmode  none
attr source  sentDummyPk
attr title  "dummy packets sent, vector(packetBytes)"
vector 999  Net802154MultiGateway.host[55].wrappedHost.trafficgen  sentDummyPk:vector(packetBytes)  ETV
attr interpolationmode  none
attr source  sentDummyPk
attr title  "dummy packets sent, vector(packetBytes)"
vector 1017  Net802154MultiGateway.host[56].wrappedHost.trafficgen  sentDummyPk:vector(packetBytes)  ETV
attr interpolationmode  none
attr source  sentDummyPk
attr title  "dummy packets sent, vector(packetBytes)"
vector 1035  Net802154MultiGateway.host[57].wrappedHost.trafficgen  sentDummyPk:vector(packetBytes)  ETV
attr interpolationmode  none
attr source  sentDummyPk
attr title  "dummy packets sent, vector(packetBytes)"
vector 1053  Net802154MultiGateway.host[58].wrappedHost.trafficgen  sentDummyPk:vector(packetBytes)  ETV
attr interpolationmode  none
attr source  sentDummyPk
attr title  "dummy packets sent, vector(packetBytes)"
vector 1071  Net802154MultiGateway.host[59].wrappedHost.trafficgen  sentDummyPk:vector(packetBytes)  ETV
attr interpolationmode  none
attr source  sentDummyPk
attr title  "dummy packets sent, vector(packetBytes)"
vector 1089  Net802154MultiGateway.host[60].wrappedHost.trafficgen  sentDummyPk:vector(packetBytes)  ETV
attr interpolationmode  none
attr source  sentDummyPk
attr title  "dummy packets sent, vector(packetBytes)"
vector 1107  Net802154MultiGateway.host[61].wrappedHost.trafficgen  sentDummyPk:vector(packetBytes)  ETV
attr interpolationmode  none
attr source  sentDummyPk
attr title  "dummy packets sent, vector(packetBytes)"
vector 16  Net802154MultiGateway.host[0].wrappedHost.wlan[0].mac  corruptedFrameReceived:vector(packetBytes)  ETV
attr interpolationmode  none
attr source  corruptedFrameReceived
attr title  "corrupted frame received, vector(packetBytes)"
vector 502  Net802154MultiGateway.host[27].wrappedHost.wlan[0].mac  corruptedFrameReceived:vector(packetBytes)  ETV
attr interpolationmode  none
attr source  corruptedFrameReceived
attr title  "corrupted frame received, vector(packetBytes)"
vector 538  Net802154MultiGateway.host[29].wrappedHost.wlan[0].mac  corruptedFrameReceived:vector(packetBytes)  ETV
attr interpolationmode  none
attr source  corruptedFrameReceived
attr title  "corrupted frame received, vector(packetBytes)"
vector 682  Net802154MultiGateway.host[37].wrappedHost.wlan[0].mac  corruptedFrameReceived:vector(packetBytes)  ETV
attr interpolationmode  none
attr source  corruptedFrameReceived
attr title  "corrupted frame received, vector(packetBytes)"
vector 518  Net802154MultiGateway.host[28].wrappedHost.wlan[0].mac  unicastDataSentDown:vector(packetBytes)  ETV
attr interpolationmode  none
attr source  unicastDataSentDown
attr title  "unicast packet sent down of type DATA, vector(packetBytes)"
vector 968  Net802154MultiGateway.host[53].wrappedHost.wlan[0].mac  unicastDataSentDown:vector(packetBytes)  ETV
attr interpolationmode  none
attr source  unicastDataSentDown
attr title  "unicast packet sent down of type DATA, vector(packetBytes)"
vector 788  Net802154MultiGateway.host[43].wrappedHost.wlan[0].mac  unicastDataSentDown:vector(packetBytes)  ETV
attr interpolationmode  none
attr source  unicastDataSentDown
attr title  "unicast packet sent down of type DATA, vector(packetBytes)"
vector 590  Net802154MultiGateway.host[32].wrappedHost.wlan[0].mac  unicastDataSentDown:vector(packetBytes)  ETV
attr interpolationmode  none
attr source  unicastDataSentDown
attr title  "unicast packet sent down of type DATA, vector(packetBytes)"
vector 374  Net802154MultiGateway.host[20].wrappedHost.wlan[0].mac  unicastDataSentDown:vector(packetBytes)  ETV
attr interpolationmode  none
attr source  unicastDataSentDown
attr title  "unicast packet sent down of type DATA, vector(packetBytes)"
vector 122  Net802154MultiGateway.host[6].wrappedHost.wlan[0].mac  unicastDataSentDown:vector(packetBytes)  ETV
attr interpolationmode  none
attr source  unicastDataSentDown
attr title  "unicast packet sent down of type DATA, vector(packetBytes)"
vector 356  Net802154MultiGateway.host[19].wrappedHost.wlan[0].mac  unicastDataSentDown:vector(packetBytes)  ETV
attr interpolationmode  none
attr source  unicastDataSentDown
attr title  "unicast packet sent down of type DATA, vector(packetBytes)"
vector 824  Net802154MultiGateway.host[45].wrappedHost.wlan[0].mac  unicastDataSentDown:vector(packetBytes)  ETV
attr interpolationmode  none
attr source  unicastDataSentDown
attr title  "unicast packet sent down of type DATA, vector(packetBytes)"
vector 950  Net802154MultiGateway.host[52].wrappedHost.wlan[0].mac  unicastDataSentDown:vector(packetBytes)  ETV
attr interpolationmode  none
attr source  unicastDataSentDown
attr title  "unicast packet sent down of type DATA, vector(packetBytes)"
vector 86  Net802154MultiGateway.host[4].wrappedHost.wlan[0].mac  unicastDataSentDown:vector(packetBytes)  ETV
attr interpolationmode  none
attr source  unicastDataSentDown
attr title  "unicast packet sent down of type DATA, vector(packetBytes)"
vector 608  Net802154MultiGateway.host[33].wrappedHost.wlan[0].mac  unicastDataSentDown:vector(packetBytes)  ETV
attr interpolationmode  none
attr source  unicastDataSentDown
attr title  "unicast packet sent down of type DATA, vector(packetBytes)"
vector 428  Net802154MultiGateway.host[23].wrappedHost.wlan[0].mac  unicastDataSentDown:vector(packetBytes)  ETV
attr interpolationmode  none
attr source  unicastDataSentDown
attr title  "unicast packet sent down of type DATA, vector(packetBytes)"
vector 230  Net802154MultiGateway.host[12].wrappedHost.wlan[0].mac  unicastDataSentDown:vector(packetBytes)  ETV
attr interpolationmode  none
attr source  unicastDataSentDown
attr title  "unicast packet sent down of type DATA, vector(packetBytes)"
vector 321  Net802154MultiGateway.host[17].wrappedHost.wlan[0].mac  broadDataSentDown:vector(packetBytes)  ETV
attr interpolationmode  none
attr source  broadcastDataSentDown
attr title  "broadcast packet sent down of type DATA, vector(packetBytes)"
vector 591  Net802154MultiGateway.host[32].wrappedHost.wlan[0].mac  broadDataSentDown:vector(packetBytes)  ETV
attr interpolationmode  none
attr source  broadcastDataSentDown
attr title  "broadcast packet sent down of type DATA, vector(packetBytes)"
vector 897  Net802154MultiGateway.host[49].wrappedHost.wlan[0].mac  broadDataSentDown:vector(packetBytes)  ETV
attr interpolationmode  none
attr source  broadcastDataSentDown
attr title  "broadcast packet sent down of type DATA, vector(packetBytes)"
vector 536  Net802154MultiGateway.host[29].wrappedHost.wlan[0].mac  unicastDataSentDown:vector(packetBytes)  ETV
attr interpolationmode  none
attr source  unicastDataSentDown
attr title  "unicast packet sent down of type DATA, vector(packetBytes)"
vector 626  Net802154MultiGateway.host[34].wrappedHost.wlan[0].mac  unicastDataSentDown:vector(packetBytes)  ETV
attr interpolationmode  none
attr source  unicastDataSentDown
attr title  "unicast packet sent down of type DATA, vector(packetBytes)"
vector 320  Net802154MultiGateway.host[17].wrappedHost.wlan[0].mac  unicastDataSentDown:vector(packetBytes)  ETV
attr interpolationmode  none
attr source  unicastDataSentDown
attr title  "unicast packet sent down of type DATA, vector(packetBytes)"
vector 338  Net802154MultiGateway.host[18].wrappedHost.wlan[0].mac  unicastDataSentDown:vector(packetBytes)  ETV
attr interpolationmode  none
attr source  unicastDataSentDown
attr title  "unicast packet sent down of type DATA, vector(packetBytes)"
vector 554  Net802154MultiGateway.host[30].wrappedHost.wlan[0].mac  unicastDataSentDown:vector(packetBytes)  ETV
attr interpolationmode  none
attr source  unicastDataSentDown
attr title  "unicast packet sent down of type DATA, vector(packetBytes)"
vector 446  Net802154MultiGateway.host[24].wrappedHost.wlan[0].mac  unicastDataSentDown:vector(packetBytes)  ETV
attr interpolationmode  none
attr source  unicastDataSentDown
attr title  "unicast packet sent down of type DATA, vector(packetBytes)"
vector 572  Net802154MultiGateway.host[31].wrappedHost.wlan[0].mac  unicastDataSentDown:vector(packetBytes)  ETV
attr interpolationmode  none
attr source  unicastDataSentDown
attr title  "unicast packet sent down of type DATA, vector(packetBytes)"
vector 825  Net802154MultiGateway.host[45].wrappedHost.wlan[0].mac  broadDataSentDown:vector(packetBytes)  ETV
attr interpolationmode  none
attr source  broadcastDataSentDown
attr title  "broadcast packet sent down of type DATA, vector(packetBytes)"
vector 519  Net802154MultiGateway.host[28].wrappedHost.wlan[0].mac  broadDataSentDown:vector(packetBytes)  ETV
attr interpolationmode  none
attr source  broadcastDataSentDown
attr title  "broadcast packet sent down of type DATA, vector(packetBytes)"
vector 951  Net802154MultiGateway.host[52].wrappedHost.wlan[0].mac  broadDataSentDown:vector(packetBytes)  ETV
attr interpolationmode  none
attr source  broadcastDataSentDown
attr title  "broadcast packet sent down of type DATA, vector(packetBytes)"
vector 482  Net802154MultiGateway.host[26].wrappedHost.wlan[0].mac  unicastDataSentDown:vector(packetBytes)  ETV
attr interpolationmode  none
attr source  unicastDataSentDown
attr title  "unicast packet sent down of type DATA, vector(packetBytes)"
vector 266  Net802154MultiGateway.host[14].wrappedHost.wlan[0].mac  unicastDataSentDown:vector(packetBytes)  ETV
attr interpolationmode  none
attr source  unicastDataSentDown
attr title  "unicast packet sent down of type DATA, vector(packetBytes)"
vector 140  Net802154MultiGateway.host[7].wrappedHost.wlan[0].mac  unicastDataSentDown:vector(packetBytes)  ETV
attr interpolationmode  none
attr source  unicastDataSentDown
attr title  "unicast packet sent down of type DATA, vector(packetBytes)"
vector 302  Net802154MultiGateway.host[16].wrappedHost.wlan[0].mac  unicastDataSentDown:vector(packetBytes)  ETV
attr interpolationmode  none
attr source  unicastDataSentDown
attr title  "unicast packet sent down of type DATA, vector(packetBytes)"
vector 177  Net802154MultiGateway.host[9].wrappedHost.wlan[0].mac  broadDataSentDown:vector(packetBytes)  ETV
attr interpolationmode  none
attr source  broadcastDataSentDown
attr title  "broadcast packet sent down of type DATA, vector(packetBytes)"
vector 573  Net802154MultiGateway.host[31].wrappedHost.wlan[0].mac  broadDataSentDown:vector(packetBytes)  ETV
attr interpolationmode  none
attr source  broadcastDataSentDown
attr title  "broadcast packet sent down of type DATA, vector(packetBytes)"
vector 159  Net802154MultiGateway.host[8].wrappedHost.wlan[0].mac  broadDataSentDown:vector(packetBytes)  ETV
attr interpolationmode  none
attr source  broadcastDataSentDown
attr title  "broadcast packet sent down of type DATA, vector(packetBytes)"
vector 212  Net802154MultiGateway.host[11].wrappedHost.wlan[0].mac  unicastDataSentDown:vector(packetBytes)  ETV
attr interpolationmode  none
attr source  unicastDataSentDown
attr title  "unicast packet sent down of type DATA, vector(packetBytes)"
vector 501  Net802154MultiGateway.host[27].wrappedHost.wlan[0].mac  broadDataSentDown:vector(packetBytes)  ETV
attr interpolationmode  none
attr source  broadcastDataSentDown
attr title  "broadcast packet sent down of type DATA, vector(packetBytes)"
vector 231  Net802154MultiGateway.host[12].wrappedHost.wlan[0].mac  broadDataSentDown:vector(packetBytes)  ETV
attr interpolationmode  none
attr source  broadcastDataSentDown
attr title  "broadcast packet sent down of type DATA, vector(packetBytes)"
vector 104  Net802154MultiGateway.host[5].wrappedHost.wlan[0].mac  unicastDataSentDown:vector(packetBytes)  ETV
attr interpolationmode  none
attr source  unicastDataSentDown
attr title  "unicast packet sent down of type DATA, vector(packetBytes)"
vector 32  Net802154MultiGateway.host[1].wrappedHost.wlan[0].mac  unicastDataSentDown:vector(packetBytes)  ETV
attr interpolationmode  none
attr source  unicastDataSentDown
attr title  "unicast packet sent down of type DATA, vector(packetBytes)"
vector 464  Net802154MultiGateway.host[25].wrappedHost.wlan[0].mac  unicastDataSentDown:vector(packetBytes)  ETV
attr interpolationmode  none
attr source  unicastDataSentDown
attr title  "unicast packet sent down of type DATA, vector(packetBytes)"
vector 158  Net802154MultiGateway.host[8].wrappedHost.wlan[0].mac  unicastDataSentDown:vector(packetBytes)  ETV
attr interpolationmode  none
attr source  unicastDataSentDown
attr title  "unicast packet sent down of type DATA, vector(packetBytes)"
vector 609  Net802154MultiGateway.host[33].wrappedHost.wlan[0].mac  broadDataSentDown:vector(packetBytes)  ETV
attr interpolationmode  none
attr source  broadcastDataSentDown
attr title  "broadcast packet sent down of type DATA, vector(packetBytes)"
vector 68  Net802154MultiGateway.host[3].wrappedHost.wlan[0].mac  unicastDataSentDown:vector(packetBytes)  ETV
attr interpolationmode  none
attr source  unicastDataSentDown
attr title  "unicast packet sent down of type DATA, vector(packetBytes)"
vector 339  Net802154MultiGateway.host[18].wrappedHost.wlan[0].mac  broadDataSentDown:vector(packetBytes)  ETV
attr interpolationmode  none
attr source  broadcastDataSentDown
attr title  "broadcast packet sent down of type DATA, vector(packetBytes)"
vector 806  Net802154MultiGateway.host[44].wrappedHost.wlan[0].mac  unicastDataSentDown:vector(packetBytes)  ETV
attr interpolationmode  none
attr source  unicastDataSentDown
attr title  "unicast packet sent down of type DATA, vector(packetBytes)"
vector 789  Net802154MultiGateway.host[43].wrappedHost.wlan[0].mac  broadDataSentDown:vector(packetBytes)  ETV
attr interpolationmode  none
attr source  broadcastDataSentDown
attr title  "broadcast packet sent down of type DATA, vector(packetBytes)"
vector 357  Net802154MultiGateway.host[19].wrappedHost.wlan[0].mac  broadDataSentDown:vector(packetBytes)  ETV
attr interpolationmode  none
attr source  broadcastDataSentDown
attr title  "broadcast packet sent down of type DATA, vector(packetBytes)"
vector 896  Net802154MultiGateway.host[49].wrappedHost.wlan[0].mac  unicastDataSentDown:vector(packetBytes)  ETV
attr interpolationmode  none
attr source  unicastDataSentDown
attr title  "unicast packet sent down of type DATA, vector(packetBytes)"
vector 500  Net802154MultiGateway.host[27].wrappedHost.wlan[0].mac  unicastDataSentDown:vector(packetBytes)  ETV
attr interpolationmode  none
attr source  unicastDataSentDown
attr title  "unicast packet sent down of type DATA, vector(packetBytes)"
vector 375  Net802154MultiGateway.host[20].wrappedHost.wlan[0].mac  broadDataSentDown:vector(packetBytes)  ETV
attr interpolationmode  none
attr source  broadcastDataSentDown
attr title  "broadcast packet sent down of type DATA, vector(packetBytes)"
vector 717  Net802154MultiGateway.host[39].wrappedHost.wlan[0].mac  broadDataSentDown:vector(packetBytes)  ETV
attr interpolationmode  none
attr source  broadcastDataSentDown
attr title  "broadcast packet sent down of type DATA, vector(packetBytes)"
vector 699  Net802154MultiGateway.host[38].wrappedHost.wlan[0].mac  broadDataSentDown:vector(packetBytes)  ETV
attr interpolationmode  none
attr source  broadcastDataSentDown
attr title  "broadcast packet sent down of type DATA, vector(packetBytes)"
vector 284  Net802154MultiGateway.host[15].wrappedHost.wlan[0].mac  unicastDataSentDown:vector(packetBytes)  ETV
attr interpolationmode  none
attr source  unicastDataSentDown
attr title  "unicast packet sent down of type DATA, vector(packetBytes)"
vector 969  Net802154MultiGateway.host[53].wrappedHost.wlan[0].mac  broadDataSentDown:vector(packetBytes)  ETV
attr interpolationmode  none
attr source  broadcastDataSentDown
attr title  "broadcast packet sent down of type DATA, vector(packetBytes)"
vector 663  Net802154MultiGateway.host[36].wrappedHost.wlan[0].mac  broadDataSentDown:vector(packetBytes)  ETV
attr interpolationmode  none
attr source  broadcastDataSentDown
attr title  "broadcast packet sent down of type DATA, vector(packetBytes)"
vector 1112  Net802154MultiGateway.host[61].wrappedHost.wlan[0].mac  unicastDataSentDown:vector(packetBytes)  ETV
attr interpolationmode  none
attr source  unicastDataSentDown
attr title  "unicast packet sent down of type DATA, vector(packetBytes)"
vector 1113  Net802154MultiGateway.host[61].wrappedHost.wlan[0].mac  broadDataSentDown:vector(packetBytes)  ETV
attr interpolationmode  none
attr source  broadcastDataSentDown
attr title  "broadcast packet sent down of type DATA, vector(packetBytes)"
vector 1004  Net802154MultiGateway.host[55].wrappedHost.wlan[0].mac  unicastDataSentDown:vector(packetBytes)  ETV
attr interpolationmode  none
attr source  unicastDataSentDown
attr title  "unicast packet sent down of type DATA, vector(packetBytes)"
vector 248  Net802154MultiGateway.host[13].wrappedHost.wlan[0].mac  unicastDataSentDown:vector(packetBytes)  ETV
attr interpolationmode  none
attr source  unicastDataSentDown
attr title  "unicast packet sent down of type DATA, vector(packetBytes)"
vector 1040  Net802154MultiGateway.host[57].wrappedHost.wlan[0].mac  unicastDataSentDown:vector(packetBytes)  ETV
attr interpolationmode  none
attr source  unicastDataSentDown
attr title  "unicast packet sent down of type DATA, vector(packetBytes)"
vector 195  Net802154MultiGateway.host[10].wrappedHost.wlan[0].mac  broadDataSentDown:vector(packetBytes)  ETV
attr interpolationmode  none
attr source  broadcastDataSentDown
attr title  "broadcast packet sent down of type DATA, vector(packetBytes)"
vector 986  Net802154MultiGateway.host[54].wrappedHost.wlan[0].mac  unicastDataSentDown:vector(packetBytes)  ETV
attr interpolationmode  none
attr source  unicastDataSentDown
attr title  "unicast packet sent down of type DATA, vector(packetBytes)"
vector 537  Net802154MultiGateway.host[29].wrappedHost.wlan[0].mac  broadDataSentDown:vector(packetBytes)  ETV
attr interpolationmode  none
attr source  broadcastDataSentDown
attr title  "broadcast packet sent down of type DATA, vector(packetBytes)"
vector 645  Net802154MultiGateway.host[35].wrappedHost.wlan[0].mac  broadDataSentDown:vector(packetBytes)  ETV
attr interpolationmode  none
attr source  broadcastDataSentDown
attr title  "broadcast packet sent down of type DATA, vector(packetBytes)"
vector 50  Net802154MultiGateway.host[2].wrappedHost.wlan[0].mac  unicastDataSentDown:vector(packetBytes)  ETV
attr interpolationmode  none
attr source  unicastDataSentDown
attr title  "unicast packet sent down of type DATA, vector(packetBytes)"
vector 285  Net802154MultiGateway.host[15].wrappedHost.wlan[0].mac  broadDataSentDown:vector(packetBytes)  ETV
attr interpolationmode  none
attr source  broadcastDataSentDown
attr title  "broadcast packet sent down of type DATA, vector(packetBytes)"
vector 1094  Net802154MultiGateway.host[60].wrappedHost.wlan[0].mac  unicastDataSentDown:vector(packetBytes)  ETV
attr interpolationmode  none
attr source  unicastDataSentDown
attr title  "unicast packet sent down of type DATA, vector(packetBytes)"
vector 914  Net802154MultiGateway.host[50].wrappedHost.wlan[0].mac  unicastDataSentDown:vector(packetBytes)  ETV
attr interpolationmode  none
attr source  unicastDataSentDown
attr title  "unicast packet sent down of type DATA, vector(packetBytes)"
vector 716  Net802154MultiGateway.host[39].wrappedHost.wlan[0].mac  unicastDataSentDown:vector(packetBytes)  ETV
attr interpolationmode  none
attr source  unicastDataSentDown
attr title  "unicast packet sent down of type DATA, vector(packetBytes)"
vector 933  Net802154MultiGateway.host[51].wrappedHost.wlan[0].mac  broadDataSentDown:vector(packetBytes)  ETV
attr interpolationmode  none
attr source  broadcastDataSentDown
attr title  "broadcast packet sent down of type DATA, vector(packetBytes)"
vector 627  Net802154MultiGateway.host[34].wrappedHost.wlan[0].mac  broadDataSentDown:vector(packetBytes)  ETV
attr interpolationmode  none
attr source  broadcastDataSentDown
attr title  "broadcast packet sent down of type DATA, vector(packetBytes)"
vector 393  Net802154MultiGateway.host[21].wrappedHost.wlan[0].mac  broadDataSentDown:vector(packetBytes)  ETV
attr interpolationmode  none
attr source  broadcastDataSentDown
attr title  "broadcast packet sent down of type DATA, vector(packetBytes)"
vector 770  Net802154MultiGateway.host[42].wrappedHost.wlan[0].mac  unicastDataSentDown:vector(packetBytes)  ETV
attr interpolationmode  none
attr source  unicastDataSentDown
attr title  "unicast packet sent down of type DATA, vector(packetBytes)"
vector 662  Net802154MultiGateway.host[36].wrappedHost.wlan[0].mac  unicastDataSentDown:vector(packetBytes)  ETV
attr interpolationmode  none
attr source  unicastDataSentDown
attr title  "unicast packet sent down of type DATA, vector(packetBytes)"
vector 410  Net802154MultiGateway.host[22].wrappedHost.wlan[0].mac  unicastDataSentDown:vector(packetBytes)  ETV
attr interpolationmode  none
attr source  unicastDataSentDown
attr title  "unicast packet sent down of type DATA, vector(packetBytes)"
vector 915  Net802154MultiGateway.host[50].wrappedHost.wlan[0].mac  broadDataSentDown:vector(packetBytes)  ETV
attr interpolationmode  none
attr source  broadcastDataSentDown
attr title  "broadcast packet sent down of type DATA, vector(packetBytes)"
vector 51  Net802154MultiGateway.host[2].wrappedHost.wlan[0].mac  broadDataSentDown:vector(packetBytes)  ETV
attr interpolationmode  none
attr source  broadcastDataSentDown
attr title  "broadcast packet sent down of type DATA, vector(packetBytes)"
vector 932  Net802154MultiGateway.host[51].wrappedHost.wlan[0].mac  unicastDataSentDown:vector(packetBytes)  ETV
attr interpolationmode  none
attr source  unicastDataSentDown
attr title  "unicast packet sent down of type DATA, vector(packetBytes)"
vector 194  Net802154MultiGateway.host[10].wrappedHost.wlan[0].mac  unicastDataSentDown:vector(packetBytes)  ETV
attr interpolationmode  none
attr source  unicastDataSentDown
attr title  "unicast packet sent down of type DATA, vector(packetBytes)"
vector 843  Net802154MultiGateway.host[46].wrappedHost.wlan[0].mac  broadDataSentDown:vector(packetBytes)  ETV
attr interpolationmode  none
attr source  broadcastDataSentDown
attr title  "broadcast packet sent down of type DATA, vector(packetBytes)"
vector 807  Net802154MultiGateway.host[44].wrappedHost.wlan[0].mac  broadDataSentDown:vector(packetBytes)  ETV
attr interpolationmode  none
attr source  broadcastDataSentDown
attr title  "broadcast packet sent down of type DATA, vector(packetBytes)"
vector 842  Net802154MultiGateway.host[46].wrappedHost.wlan[0].mac  unicastDataSentDown:vector(packetBytes)  ETV
attr interpolationmode  none
attr source  unicastDataSentDown
attr title  "unicast packet sent down of type DATA, vector(packetBytes)"
vector 644  Net802154MultiGateway.host[35].wrappedHost.wlan[0].mac  unicastDataSentDown:vector(packetBytes)  ETV
attr interpolationmode  none
attr source  unicastDataSentDown
attr title  "unicast packet sent down of type DATA, vector(packetBytes)"
vector 1005  Net802154MultiGateway.host[55].wrappedHost.wlan[0].mac  broadDataSentDown:vector(packetBytes)  ETV
attr interpolationmode  none
attr source  broadcastDataSentDown
attr title  "broadcast packet sent down of type DATA, vector(packetBytes)"
vector 861  Net802154MultiGateway.host[47].wrappedHost.wlan[0].mac  broadDataSentDown:vector(packetBytes)  ETV
attr interpolationmode  none
attr source  broadcastDataSentDown
attr title  "broadcast packet sent down of type DATA, vector(packetBytes)"
vector 483  Net802154MultiGateway.host[26].wrappedHost.wlan[0].mac  broadDataSentDown:vector(packetBytes)  ETV
attr interpolationmode  none
attr source  broadcastDataSentDown
attr title  "broadcast packet sent down of type DATA, vector(packetBytes)"
vector 1042  Net802154MultiGateway.host[57].wrappedHost.wlan[0].mac  corruptedFrameReceived:vector(packetBytes)  ETV
attr interpolationmode  none
attr source  corruptedFrameReceived
attr title  "corrupted frame received, vector(packetBytes)"
vector 1023  Net802154MultiGateway.host[56].wrappedHost.wlan[0].mac  broadDataSentDown:vector(packetBytes)  ETV
attr interpolationmode  none
attr source  broadcastDataSentDown
attr title  "broadcast packet sent down of type DATA, vector(packetBytes)"
vector 429  Net802154MultiGateway.host[23].wrappedHost.wlan[0].mac  broadDataSentDown:vector(packetBytes)  ETV
attr interpolationmode  none
attr source  broadcastDataSentDown
attr title  "broadcast packet sent down of type DATA, vector(packetBytes)"
vector 771  Net802154MultiGateway.host[42].wrappedHost.wlan[0].mac  broadDataSentDown:vector(packetBytes)  ETV
attr interpolationmode  none
attr source  broadcastDataSentDown
attr title  "broadcast packet sent down of type DATA, vector(packetBytes)"
vector 176  Net802154MultiGateway.host[9].wrappedHost.wlan[0].mac  unicastDataSentDown:vector(packetBytes)  ETV
attr interpolationmode  none
attr source  unicastDataSentDown
attr title  "unicast packet sent down of type DATA, vector(packetBytes)"
vector 987  Net802154MultiGateway.host[54].wrappedHost.wlan[0].mac  broadDataSentDown:vector(packetBytes)  ETV
attr interpolationmode  none
attr source  broadcastDataSentDown
attr title  "broadcast packet sent down of type DATA, vector(packetBytes)"
vector 860  Net802154MultiGateway.host[47].wrappedHost.wlan[0].mac  unicastDataSentDown:vector(packetBytes)  ETV
attr interpolationmode  none
attr source  unicastDataSentDown
attr title  "unicast packet sent down of type DATA, vector(packetBytes)"
vector 1022  Net802154MultiGateway.host[56].wrappedHost.wlan[0].mac  unicastDataSentDown:vector(packetBytes)  ETV
attr interpolationmode  none
attr source  unicastDataSentDown
attr title  "unicast packet sent down of type DATA, vector(packetBytes)"
vector 698  Net802154MultiGateway.host[38].wrappedHost.wlan[0].mac  unicastDataSentDown:vector(packetBytes)  ETV
attr interpolationmode  none
attr source  unicastDataSentDown
attr title  "unicast packet sent down of type DATA, vector(packetBytes)"
vector 680  Net802154MultiGateway.host[37].wrappedHost.wlan[0].mac  unicastDataSentDown:vector(packetBytes)  ETV
attr interpolationmode  none
attr source  unicastDataSentDown
attr title  "unicast packet sent down of type DATA, vector(packetBytes)"
vector 392  Net802154MultiGateway.host[21].wrappedHost.wlan[0].mac  unicastDataSentDown:vector(packetBytes)  ETV
attr interpolationmode  none
attr source  unicastDataSentDown
attr title  "unicast packet sent down of type DATA, vector(packetBytes)"
vector 734  Net802154MultiGateway.host[40].wrappedHost.wlan[0].mac  unicastDataSentDown:vector(packetBytes)  ETV
attr interpolationmode  none
attr source  unicastDataSentDown
attr title  "unicast packet sent down of type DATA, vector(packetBytes)"
vector 1076  Net802154MultiGateway.host[59].wrappedHost.wlan[0].mac  unicastDataSentDown:vector(packetBytes)  ETV
attr interpolationmode  none
attr source  unicastDataSentDown
attr title  "unicast packet sent down of type DATA, vector(packetBytes)"
vector 878  Net802154MultiGateway.host[48].wrappedHost.wlan[0].mac  unicastDataSentDown:vector(packetBytes)  ETV
attr interpolationmode  none
attr source  unicastDataSentDown
attr title  "unicast packet sent down of type DATA, vector(packetBytes)"
vector 790  Net802154MultiGateway.host[43].wrappedHost.wlan[0].mac  corruptedFrameReceived:vector(packetBytes)  ETV
attr interpolationmode  none
attr source  corruptedFrameReceived
attr title  "corrupted frame received, vector(packetBytes)"
vector 1059  Net802154MultiGateway.host[58].wrappedHost.wlan[0].mac  broadDataSentDown:vector(packetBytes)  ETV
attr interpolationmode  none
attr source  broadcastDataSentDown
attr title  "broadcast packet sent down of type DATA, vector(packetBytes)"
vector 411  Net802154MultiGateway.host[22].wrappedHost.wlan[0].mac  broadDataSentDown:vector(packetBytes)  ETV
attr interpolationmode  none
attr source  broadcastDataSentDown
attr title  "broadcast packet sent down of type DATA, vector(packetBytes)"
vector 879  Net802154MultiGateway.host[48].wrappedHost.wlan[0].mac  broadDataSentDown:vector(packetBytes)  ETV
attr interpolationmode  none
attr source  broadcastDataSentDown
attr title  "broadcast packet sent down of type DATA, vector(packetBytes)"
vector 1058  Net802154MultiGateway.host[58].wrappedHost.wlan[0].mac  unicastDataSentDown:vector(packetBytes)  ETV
attr interpolationmode  none
attr source  unicastDataSentDown
attr title  "unicast packet sent down of type DATA, vector(packetBytes)"
vector 752  Net802154MultiGateway.host[41].wrappedHost.wlan[0].mac  unicastDataSentDown:vector(packetBytes)  ETV
attr interpolationmode  none
attr source  unicastDataSentDown
attr title  "unicast packet sent down of type DATA, vector(packetBytes)"
vector 753  Net802154MultiGateway.host[41].wrappedHost.wlan[0].mac  broadDataSentDown:vector(packetBytes)  ETV
attr interpolationmode  none
attr source  broadcastDataSentDown
attr title  "broadcast packet sent down of type DATA, vector(packetBytes)"
vector 1077  Net802154MultiGateway.host[59].wrappedHost.wlan[0].mac  broadDataSentDown:vector(packetBytes)  ETV
attr interpolationmode  none
attr source  broadcastDataSentDown
attr title  "broadcast packet sent down of type DATA, vector(packetBytes)"
vector 1095  Net802154MultiGateway.host[60].wrappedHost.wlan[0].mac  broadDataSentDown:vector(packetBytes)  ETV
attr interpolationmode  none
attr source  broadcastDataSentDown
attr title  "broadcast packet sent down of type DATA, vector(packetBytes)"
vector 1041  Net802154MultiGateway.host[57].wrappedHost.wlan[0].mac  broadDataSentDown:vector(packetBytes)  ETV
attr interpolationmode  none
attr source  broadcastDataSentDown
attr title  "broadcast packet sent down of type DATA, vector(packetBytes)"
vector 681  Net802154MultiGateway.host[37].wrappedHost.wlan[0].mac  broadDataSentDown:vector(packetBytes)  ETV
attr interpolationmode  none
attr source  broadcastDataSentDown
attr title  "broadcast packet sent down of type DATA, vector(packetBytes)"
vector 735  Net802154MultiGateway.host[40].wrappedHost.wlan[0].mac  broadDataSentDown:vector(packetBytes)  ETV
attr interpolationmode  none
attr source  broadcastDataSentDown
attr title  "broadcast packet sent down of type DATA, vector(packetBytes)"
vector 465  Net802154MultiGateway.host[25].wrappedHost.wlan[0].mac  broadDataSentDown:vector(packetBytes)  ETV
attr interpolationmode  none
attr source  broadcastDataSentDown
attr title  "broadcast packet sent down of type DATA, vector(packetBytes)"
vector 592  Net802154MultiGateway.host[32].wrappedHost.wlan[0].mac  corruptedFrameReceived:vector(packetBytes)  ETV
attr interpolationmode  none
attr source  corruptedFrameReceived
attr title  "corrupted frame received, vector(packetBytes)"
vector 1024  Net802154MultiGateway.host[56].wrappedHost.wlan[0].mac  corruptedFrameReceived:vector(packetBytes)  ETV
attr interpolationmode  none
attr source  corruptedFrameReceived
attr title  "corrupted frame received, vector(packetBytes)"
vector 1096  Net802154MultiGateway.host[60].wrappedHost.wlan[0].mac  corruptedFrameReceived:vector(packetBytes)  ETV
attr interpolationmode  none
attr source  corruptedFrameReceived
attr title  "corrupted frame received, vector(packetBytes)"
vector 772  Net802154MultiGateway.host[42].wrappedHost.wlan[0].mac  corruptedFrameReceived:vector(packetBytes)  ETV
attr interpolationmode  none
attr source  corruptedFrameReceived
attr title  "corrupted frame received, vector(packetBytes)"
vector 970  Net802154MultiGateway.host[53].wrappedHost.wlan[0].mac  corruptedFrameReceived:vector(packetBytes)  ETV
attr interpolationmode  none
attr source  corruptedFrameReceived
attr title  "corrupted frame received, vector(packetBytes)"
vector 1014  Net802154MultiGateway.host[56].wrappedHost.trafficgen  sentPk:vector(packetBytes)  ETV
attr interpolationmode  none
attr source  sentPk
attr title  "packets sent, vector(packetBytes)"
vector 1018  Net802154MultiGateway.host[56].wrappedHost.trafficgen  PRR:vector  ETV
attr interpolationmode  none
attr source  count(sinkRcvdPk)/count(sentPk)
attr title  "PRR, vector"
vector 906  Net802154MultiGateway.host[50].wrappedHost.trafficgen  sentPk:vector(packetBytes)  ETV
attr interpolationmode  none
attr source  sentPk
attr title  "packets sent, vector(packetBytes)"
vector 910  Net802154MultiGateway.host[50].wrappedHost.trafficgen  PRR:vector  ETV
attr interpolationmode  none
attr source  count(sinkRcvdPk)/count(sentPk)
attr title  "PRR, vector"
vector 834  Net802154MultiGateway.host[46].wrappedHost.trafficgen  sentPk:vector(packetBytes)  ETV
attr interpolationmode  none
attr source  sentPk
attr title  "packets sent, vector(packetBytes)"
vector 838  Net802154MultiGateway.host[46].wrappedHost.trafficgen  PRR:vector  ETV
attr interpolationmode  none
attr source  count(sinkRcvdPk)/count(sentPk)
attr title  "PRR, vector"
vector 654  Net802154MultiGateway.host[36].wrappedHost.trafficgen  sentPk:vector(packetBytes)  ETV
attr interpolationmode  none
attr source  sentPk
attr title  "packets sent, vector(packetBytes)"
vector 658  Net802154MultiGateway.host[36].wrappedHost.trafficgen  PRR:vector  ETV
attr interpolationmode  none
attr source  count(sinkRcvdPk)/count(sentPk)
attr title  "PRR, vector"
vector 204  Net802154MultiGateway.host[11].wrappedHost.trafficgen  sentPk:vector(packetBytes)  ETV
attr interpolationmode  none
attr source  sentPk
attr title  "packets sent, vector(packetBytes)"
vector 208  Net802154MultiGateway.host[11].wrappedHost.trafficgen  PRR:vector  ETV
attr interpolationmode  none
attr source  count(sinkRcvdPk)/count(sentPk)
attr title  "PRR, vector"
vector 1104  Net802154MultiGateway.host[61].wrappedHost.trafficgen  sentPk:vector(packetBytes)  ETV
attr interpolationmode  none
attr source  sentPk
attr title  "packets sent, vector(packetBytes)"
vector 1108  Net802154MultiGateway.host[61].wrappedHost.trafficgen  PRR:vector  ETV
attr interpolationmode  none
attr source  count(sinkRcvdPk)/count(sentPk)
attr title  "PRR, vector"
vector 942  Net802154MultiGateway.host[52].wrappedHost.trafficgen  sentPk:vector(packetBytes)  ETV
attr interpolationmode  none
attr source  sentPk
attr title  "packets sent, vector(packetBytes)"
vector 946  Net802154MultiGateway.host[52].wrappedHost.trafficgen  PRR:vector  ETV
attr interpolationmode  none
attr source  count(sinkRcvdPk)/count(sentPk)
attr title  "PRR, vector"
vector 960  Net802154MultiGateway.host[53].wrappedHost.trafficgen  sentPk:vector(packetBytes)  ETV
attr interpolationmode  none
attr source  sentPk
attr title  "packets sent, vector(packetBytes)"
vector 964  Net802154MultiGateway.host[53].wrappedHost.trafficgen  PRR:vector  ETV
attr interpolationmode  none
attr source  count(sinkRcvdPk)/count(sentPk)
attr title  "PRR, vector"
vector 240  Net802154MultiGateway.host[13].wrappedHost.trafficgen  sentPk:vector(packetBytes)  ETV
attr interpolationmode  none
attr source  sentPk
attr title  "packets sent, vector(packetBytes)"
vector 244  Net802154MultiGateway.host[13].wrappedHost.trafficgen  PRR:vector  ETV
attr interpolationmode  none
attr source  count(sinkRcvdPk)/count(sentPk)
attr title  "PRR, vector"
vector 114  Net802154MultiGateway.host[6].wrappedHost.trafficgen  sentPk:vector(packetBytes)  ETV
attr interpolationmode  none
attr source  sentPk
attr title  "packets sent, vector(packetBytes)"
vector 118  Net802154MultiGateway.host[6].wrappedHost.trafficgen  PRR:vector  ETV
attr interpolationmode  none
attr source  count(sinkRcvdPk)/count(sentPk)
attr title  "PRR, vector"
vector 242  Net802154MultiGateway.host[13].wrappedHost.trafficgen  sinkRcvdPk:vector(packetBytes)  ETV
attr interpolationmode  none
attr source  sinkRcvdPk
attr title  "own packets received by sink, vector(packetBytes)"
vector 5  Net802154MultiGateway.host[0].wrappedHost.trafficgen  rcvdPk:vector(packetBytes)  ETV
attr interpolationmode  none
attr source  rcvdPk
attr title  "packets received, vector(packetBytes)"
[...]
591	11204431 1213 526050 11417608 30.361728 493.781248 47 29 29 1363 39527
592	11205644 1011 1171137 10883673 56.657952771498 471.254368437934 32 5 34 897 28361
593	11206655 156684 148460 11499801 8.857216431439 497.198720347537 4953 5 120 144592 6694198
600	11363339 3192 5024099 9798968 221.725516977407 424.731652260404 100 76 76 7600 577600
602	11366531 3200 5030971 9819376 222.034832333564 425.616272333564 100 76 76 7600 577600
603	11369731 3954 513389 11185272 30 483.846150013355 125 76 76 9500 722000
604	11373685 8196 5024099 9819376 221.725516977407 425.616272333564 200 0.5 1 -nan -nan
608	11381881 17235 519338 11485529 30.0672 496.63488 670 120 120 80400 9648000
609	11399116 1215 562681 11376618 31.767616 492.020928 47 29 29 1363 39527
610	11400331 11594 433371 11492747 25.445696534138 496.927840534138 364 5 34 10887 338691
611	11411925 152920 111357 11499597 6.645696347537 497.195136437934 4825 5 120 156206 9419814
618	11564845 3187 5085910 9199805 224.373351176527 398.634175761276 100 76 76 7600 577600
620	11568032 3200 5100202 9221650 224.945552333564 399.588752333564 100 76 76 7600 577600
621	11571232 4551 513390 11491714 30 496.88739066698 144 76 76 10944 831744
622	11575783 8006 5085910 9221650 224.373351176527 399.588752333564 200 0.5 1 -nan -nan
626	11583789 11711 529589 11491255 30.55104 496.87296 455 120 120 54600 6552000
627	11595500 1212 610070 11419614 33.559616 493.864768 47 29 29 1363 39527
628	11596712 17413 324741 11445313 19.192736952042 494.976256538651 548 5 34 16181 509129
629	11614125 147053 55491 11499802 3.328256347537 497.198720347537 4645 5 120 132157 6193993
636	11761178 3192 5033737 9537516 222.161850183073 413.501191437789 100 76 76 7600 577600
638	11764370 3200 5045317 9564149 222.656912333564 414.572432333564 100 76 76 7600 577600
639	11767570 4321 513391 11389451 30 492.607212973885 136 76 76 10336 785536
640	11771891 8093 5033737 9564149 222.161850183073 414.572432333564 200 0.2 1 -nan -nan
644	11779984 12343 630528 11470879 34.24512 496.02816 480 120 120 57600 6912000
645	11792327 1215 603003 11382101 33.308928 492.266368 47 29 29 1363 39527
646	11793542 16218 148438 11458961 8.856576611071 495.576160611071 509 5 34 14337 432053
647	11809760 147150 111358 11499598 6.645696347537 497.195136437934 4644 5 120 136445 6731665
654	11956910 3192 4990383 9260075 220.20732466451 401.278770985661 100 76 76 7600 577600
656	11960102 3200 5016707 9277159 221.397392333564 402.030992333564 100 76 76 7600 577600
657	11963302 4103 513392 11475984 30 496.230699042955 129 76 76 9804 745104
658	11967405 8047 4990383 9277159 220.20732466451 402.030992333564 200 0.5 1 -nan -nan
662	11975452 16394 616082 11500538 33.73824 497.2416 637 120 120 76440 9172800
663	11991846 1213 586634 11393637 32.694848 492.758848 47 29 29 1363 39527
664	11993059 7601 111398 11456903 6.646656521831 495.469824572016 238 5 34 7077 223059
665	12000660 162566 55453 11500799 3.326976347537 497.246176725394 5148 5 120 162417 9224223
672	12163226 3194 5138446 10141708 226.652538306494 439.481804072042 100 76 76 7600 577600
674	12166420 3209 5194986 10207012 229.123472333564 442.228112333564 100 76 76 7600 577600
675	12169629 3543 513393 11488066 30 496.72998037613 112 76 76 8512 646912
676	12173172 8094 5138446 10207012 226.652538306494 442.228112333564 200 0.25 1 -nan -nan
680	12181266 5316 679314 11488385 36.07296 496.75008 207 120 120 24840 2980800
681	12186582 1186 873013 11393636 44.126 492.758848 46 29 29 1334 38686
682	12187768 14162 515733 11381930 30.018064521831 492.258400521831 444 5 34 13425 420863
683	12201930 101391 55449 11488759 3.326976333564 496.754656667128 3200 5 34 80469 2395735
690	12303321 3191 5017150 10013844 221.415400567236 433.966341465093 100 76 76 7600 577600
692	12306512 3201 5049951 10035687 222.871952333564 434.855312333564 100 76 76 7600 577600
693	12309713 4498 513394 11495235 30 497.043438485182 142 76 76 10792 820192
694	12314211 8168 5017150 10035687 221.415400567236 434.855312333564 200 0.5 1 -nan -nan
698	12322379 6169 670275 11467407 35.712 495.88992 240 120 120 28800 3456000
699	12328548 1216 578282 11374079 32.375328 491.907616 47 29 29 1363 39527
700	12329764 17329 394518 11496084 23.234176611071 497.065536611071 544 5 34 15332 463666
701	12347093 75953 55456 11498986 3.326976441768 497.173600334453 2441 5 34 60062 1781990
708	12423046 3190 5026381 9044421 221.840284047402 391.986019709769 100 76 76 7600 577600
710	12426236 3200 5056300 9096109 223.133072333564 394.166672333564 100 76 76 7600 577600
711	12429436 4224 513395 11488194 30 496.742169685014 133 76 76 10108 768208
712	12433660 8199 5026381 9096109 221.840284047402 394.166672333564 200 0.33333333333333 1 -nan -nan
716	12441859 5963 607827 11497255 33.50016 497.11872 232 120 120 27840 3340800
717	12447822 1215 578117 11436415 32.36672 494.600768 47 29 29 1363 39527
719	12449037 82337 92851 11497516 5.538816377756 497.123296755512 2596 5 34 65499 1942057
726	12531374 3197 5051152 10134953 222.929109287547 439.181322731791 100 76 76 7600 577600
728	12534571 3207 5075487 10168799 223.970192333564 440.615312333564 100 76 76 7600 577600
729	12537778 3979 513396 11492244 30 496.905379677009 126 76 76 9576 727776
730	12541757 8040 5051152 10168799 222.929109287547 440.615312333564 200 0.5 1 -nan -nan
734	12549797 5649 703856 11494040 37.056 496.99584 220 120 120 26400 3168000
735	12555446 1193 884313 11364847 44.615808 491.528448 46 29 29 1334 38686
736	12556639 21878 92857 11466046 5.538816572016 495.821920572016 687 5 34 19982 618210
737	12578517 72926 185872 11498987 11.069696474592 497.173600334453 2303 5 120 56060 1660912
744	12651443 3194 5094325 10106783 224.69946262723 437.929715723155 100 76 76 7600 577600
746	12654637 3203 5119685 10117992 225.836432333564 438.434192333564 100 76 76 7600 577600
747	12657840 4706 513397 11478406 30 496.328008964853 149 76 76 11324 860624
748	12662546 8223 5094325 10117992 224.69946262723 438.434192333564 200 0.5 1 -nan -nan
752	12670769 6189 809409 11485480 41.47968 496.63488 241 120 120 28920 3470400
753	12676958 1191 834225 11370867 42.525568 491.774848 46 29 29 1334 38686
754	12678149 20098 111314 11499007 6.644416334453 497.173600559244 631 5 34 18584 578664
755	12698247 84804 129877 11496082 7.750976334453 497.065536486069 2676 5 34 65664 1928276
762	12783051 3191 5022882 9159652 221.671709910883 396.890278321426 100 76 76 7600 577600
764	12786242 3200 5050422 9170551 222.894992333564 397.369232333564 100 76 76 7600 577600
765	12789442 4465 513398 11476364 30 496.256976444215 140 76 76 10640 808640
766	12793907 8162 5022882 9170551 221.671709910883 397.369232333564 200 0.5 1 -nan -nan
770	12802069 6174 616080 11485037 33.73824 496.6272 239 120 120 28680 3441600
771	12808243 1211 647352 11333502 34.809472 490.199376 47 29 29 1363 39527
772	12809454 63 3131751 8926909 140.709776411848 387.082272748905 2 5 29 34 866
773	12809517 79735 185870 11498997 11.069696411848 497.173600370476 2520 5 34 62513 1862463
780	12889252 3185 5006217 9766758 220.916116342446 423.27858327721 100 76 76 7600 577600
782	12892437 3200 5027922 9799767 221.904272333564 424.763792333564 100 76 76 7600 577600
783	12895637 4252 513399 11389447 30 492.603888657344 134 76 76 10184 773984
784	12899889 8245 5006217 9799767 220.916116342446 424.763792333564 200 0.5 1 -nan -nan
788	12908134 6033 518614 11397951 30.05184 492.9408 235 120 120 28200 3384000
789	12914167 1210 567483 11422414 31.97616 493.985728 47 29 29 1363 39527
790	12915377 322 741179 11279745 38.596736431439 487.854272334453 10 5 34 278 9034
791	12915699 81297 111315 11498993 6.644416334453 497.173600357641 2571 5 120 63914 1918292
798	12996996 3186 4998659 9737205 220.577143782906 421.970625737276 100 76 76 7600 577600
800	13000182 3200 5022223 9751144 221.643152333564 422.582672333564 100 76 76 7600 577600
801	13003382 5006 513400 11469915 30 495.990036730001 158 76 76 12008 912608
802	13008388 8143 4998659 9751144 220.577143782906 422.582672333564 200 0.33333333333333 1 -nan -nan
806	13016531 6601 565570 11481953 31.89504 496.50432 257 120 120 30840 3700800
807	13023132 1214 629674 11399505 34.224432 493.004288 47 29 29 1363 39527
808	13024346 12774 284787 11499005 16.849440509706 497.173600534138 401 5 34 12060 380670
809	13037120 94673 55477 11493214 3.327616334453 496.942656334453 2999 5 34 73775 2192463
816	13131793 3185 5042213 9552459 222.52464918147 414.094786781501 100 76 76 7600 577600
818	13134978 3200 5067568 9593370 223.609232333564 415.816592333564 100 76 76 7600 577600
819	13138178 4384 513401 11390088 30 492.635789512169 139 76 76 10564 802864
820	13142562 8157 5042213 9593370 222.52464918147 415.816592333564 200 0.33333333333333 1 -nan -nan
824	13150719 6132 519039 11395338 30.05952 492.8256 240 120 120 28800 3456000
825	13156851 1218 535500 11437651 30.728128 494.653024 47 29 29 1363 39527
826	13158069 16761 148466 11495793 8.85721659794 497.06163259794 544 5 34 15550 471172
827	13174830 62282 111382 11495621 6.646016334453 497.059872960637 1995 5 120 47377 1430661
834	13237112 3193 4989412 10262281 220.164967621827 444.505679561462 100 76 76 7600 577600
836	13240305 3207 5022744 10287493 221.666192333564 445.561232333564 100 76 76 7600 577600
837	13243512 4013 513402 11446936 30 495.067117980357 127 76 76 9652 733552
838	13247525 8087 4989412 10287493 220.164967621827 445.561232333564 200 0.5 1 -nan -nan
842	13255612 5792 629821 11452271 34.22976 495.27552 226 120 120 27120 3254400
843	13261404 1214 628273 11390515 34.168848 492.642656 47 29 29 1363 39527
844	13262618 62 223801 5034234 13.282176393872 222.177888385565 2 18 29 47 1165
845	13262680 66004 55478 11495788 3.327616334453 497.061632393872 2097 5 34 51581 1540117
852	13328684 3178 5038980 9017339 222.403277443929 390.883353018565 100 76 76 7600 577600
854	13331862 3200 5064652 9035389 223.494032333564 391.616912333564 100 76 76 7600 577600
855	13335062 5384 513403 11374087 30 491.908536911029 170 76 76 12920 981920
856	13340446 8228 5038980 9035389 222.403277443929 391.616912333564 200 0.25 1 -nan -nan
860	13348674 6864 657440 11383374 35.22816 492.3264 267 120 120 32040 3844800
861	13355538 1212 639154 11376619 34.539648 492.020928 47 29 29 1363 39527
862	13356750 15138 284793 11493033 16.849440584919 496.940032584919 476 5 34 13885 441795
863	13371888 61983 148448 11495781 8.857216343176 497.061632343176 1964 5 34 45875 1346787
870	13433871 3191 5035491 9939862 222.240865134918 430.833465697625 100 76 76 7600 577600
872	13437062 3200 5067297 9967532 223.601552333564 432.021392333564 100 76 76 7600 577600
873	13440262 4251 513404 11415112 30 493.689875681207 134 76 76 10184 773984
874	13444513 8251 5035491 9967532 222.240865134918 432.021392333564 200 0.33333333333333 1 -nan -nan
878	13452764 5902 716986 11426346 37.5552 494.1696 230 120 120 27600 3312000
879	13458666 1190 802562 11431199 41.202832 494.355008 46 29 29 1334 38686
880	13459856 13589 374846 11469165 22.127616546614 495.944800546614 427 5 34 12910 401390
881	13473445 66950 148402 11495791 8.856256334453 497.06163249778 2132 5 34 51546 1523520
888	13540395 3193 5001540 9162531 220.694947488223 397.009827476275 100 76 76 7600 577600
890	13543588 3200 5044400 9196205 222.618512333564 398.482832333564 100 76 76 7600 577600
891	13546788 4757 513405 11464125 30 495.750819417781 150 76 76 11400 866400
892	13551545 8187 5001540 9196205 220.694947488223 398.482832333564 200 0.25 1 -nan -nan
896	13559732 6386 572725 11473878 32.1408 496.15104 249 120 120 29880 3585600
897	13566118 1212 526101 11362296 30.36512 491.405888 47 29 29 1363 39527
898	13567330 32 6421858 6421858 281.282688421456 281.282688421456 1 34 34 34 1156
899	13567362 61972 167065 11474063 9.963456334453 496.15561672752 1989 5 34 48400 1439330
906	13629334 3198 4987574 10080347 220.078242079641 436.767259970887 100 76 76 7600 577600
908	13632532 3205 5032904 10108699 222.126992333564 438.034832333564 100 76 76 7600 577600
909	13635737 3558 513406 11456906 30 495.473311233929 113 76 76 8588 652688
910	13639295 8156 4987574 10108699 220.078242079641 438.034832333564 200 0.5 1 -nan -nan
914	13647451 5441 607802 11473003 33.50016 496.13568 212 120 120 25440 3052800
915	13652892 1211 620716 11376676 33.924288 492.021568 47 29 29 1363 39527
916	13654103 156 513096 9137073 29.993536334453 395.929728334453 5 5 34 130 3958
917	13654259 67549 242823 11486990 14.387776334453 496.682080334453 2160 5 34 54420 1617694
924	13721808 3188 5086123 9415216 224.383839150362 408.191762612363 100 76 76 7600 577600
926	13724996 3200 5100731 9442769 224.960912333564 409.411472333564 100 76 76 7600 577600
927	13728196 4022 513407 11460489 30 495.621993899726 127 76 76 9652 733552
928	13732218 8127 5086123 9442769 224.383839150362 409.411472333564 200 0.25 1 -nan -nan
932	13740345 5791 622553 11467394 33.99168 495.88992 225 120 120 27000 3240000
933	13746136 1213 609689 11353841 33.554368 491.057472 47 29 29 1363 39527
934	13747349 13238 129851 11469166 7.75033649778 495.944800546614 417 5 34 12557 389529
935	13760587 73430 129903 11489950 7.751616334453 496.80496049778 2333 5 34 57597 1697999
942	13834017 3191 4992058 9554368 220.288110082039 414.173747838647 100 76 76 7600 577600
944	13837208 3200 5000876 9590130 220.667792333564 415.678352333564 100 76 76 7600 577600
945	13840408 4171 513408 11440302 30 494.744426251432 132 76 76 10032 762432
946	13844579 8057 4992058 9590130 220.288110082039 415.678352333564 200 0.5 1 -nan -nan
950	13852636 5968 519045 11443498 30.05952 494.90688 232 120 120 27840 3340800
951	13858604 1211 535532 11434647 30.729088 494.50736 47 29 29 1363 39527
952	13859815 22817 280160 11466048 16.599296584919 495.821920584919 718 5 34 20940 648630
953	13882632 76160 129839 11489914 7.750336343176 496.804960343176 2406 5 34 59632 1749374
960	13958792 3191 4992345 9182671 220.302736075379 397.914644384802 100 76 76 7600 577600
962	13961983 3200 5011782 9207532 221.159312333564 398.982032333564 100 76 76 7600 577600
963	13965183 3963 513409 11452989 30 495.29439291864 125 76 76 9500 722000
964	13969146 8064 4992345 9207532 220.302736075379 398.982032333564 200 0.33333333333333 1 -nan -nan
968	13977210 5785 518613 11461326 30.05184 495.65184 225 120 120 27000 3240000
969	13982995 1214 580255 11387449 32.458304 492.512768 47 29 29 1363 39527
970	13984209 64 4563256 6965529 201.779488334453 304.634112334453 2 29 32 61 1865
971	13984273 81239 129847 11489934 7.750336393872 496.804960393872 2573 5 34 65496 1945614
978	14065512 3193 4998591 10036732 220.575049802495 434.887749965712 100 76 76 7600 577600
980	14068705 3203 5014078 10111696 221.274512333564 438.165392333564 100 76 76 7600 577600
981	14071908 4247 513410 11452190 30 495.26959510673 134 76 76 10184 773984
982	14076155 8053 4998591 10111696 220.575049802495 438.165392333564 200 0.5 1 -nan -nan
986	14084208 5997 601591 11464463 33.24672 495.76704 233 120 120 27960 3355200
987	14090205 1213 649577 11345822 34.907968 490.719264 47 29 29 1363 39527
988	14091418 17523 129853 11489952 7.75033659794 496.80496059794 569 5 34 16323 496503
989	14108941 75198 280124 11492738 16.598016334453 496.927840334453 2383 5 34 58997 1752527
996	14184139 3189 5009529 9903005 221.060090987426 429.176115749654 100 76 76 7600 577600
998	14187328 3200 5028216 9927754 221.919632333564 430.285712333564 100 76 76 7600 577600
999	14190528 3833 513411 11493222 30 496.945198965039 121 76 76 9196 698896
1000	14194361 8301 5009529 9927754 221.060090987426 430.285712333564 200 0.5 1 -nan -nan
1004	14202662 5874 594524 11497266 33.00864 497.11872 220 120 120 26400 3168000
1005	14208536 1259 631523 11360054 34.292288 491.308288 47 29 29 1363 39527
1006	14209795 15001 223833 11499519 13.283264534138 497.191232534138 457 5 34 13682 426728
1007	14224796 90070 148445 11499812 8.857216334453 497.198720534138 2758 5 34 68397 2035377
1014	14314866 3297 4985653 10097973 220.001965331508 437.542840581292 100 76 76 7600 577600
1016	14318163 3304 4998390 10150986 220.567952333564 439.870352333564 100 76 76 7600 577600
1017	14321467 3955 513412 11483018 30 496.54377892933 121 76 76 9196 698896
1018	14325422 8372 4985653 10150986 220.001965331508 439.870352333564 200 0.33333333333333 1 -nan -nan
1022	14333794 5822 663025 11485041 35.45856 496.6272 218 120 120 26160 3139200
1023	14339616 1262 643619 11425217 34.67328 494.109248 47 29 29 1363 39527
1024	14340878 98 2486888 8707037 112.737520431439 377.748352431439 3 5 34 71 2205
1025	14340976 79179 223825 11499804 13.283264357641 497.198720357641 2422 5 34 60704 1811840
1032	14420155 3294 4999845 9856902 220.635894900232 427.216538666237 100 76 76 7600 577600
1034	14423449 3300 5022918 9878048 221.673872333564 428.096912333564 100 76 76 7600 577600
1035	14426749 4231 513413 11495419 30 497.053943388834 129 76 76 9804 745104
1036	14430980 8285 4999845 9878048 220.635894900232 428.096912333564 200 0.33333333333333 1 -nan -nan
1040	14439265 6072 598249 11497917 33.12384 497.13408 227 120 120 27240 3268800
1041	14445337 1233 872980 11342790 44.122688 490.599296 46 29 29 1334 38686
1042	14446570 128 639485 3190815 34.543840411848 143.289248411848 4 29 34 124 3862
1043	14446698 81293 111360 11499808 6.645696411848 497.198720370476 2495 5 34 62388 1863398
1050	14527991 3294 5000062 10193557 220.641117507097 441.661135229272 100 76 76 7600 577600
1052	14531285 3307 5033773 10248903 222.165392333564 443.940752333564 100 76 76 7600 577600
1053	14534592 3645 513414 11441127 30 494.784001496301 111 76 76 8436 641136
1054	14538237 8316 5000062 10248903 220.641117507097 443.940752333564 200 0.5 1 -nan -nan
1058	14546553 5600 803247 11464460 41.23392 495.76704 209 120 120 25080 3009600
1059	14552153 1232 781664 11339569 40.36752 490.464336 46 29 29 1334 38686
1060	14553385 21559 448269 11499814 26.306592559244 497.198720559244 658 5 34 19337 601835
1061	14574944 78210 55500 11496157 3.328256486069 497.068096334453 2397 5 120 58705 1744305
1068	14653154 3282 5044203 9593949 222.612398074007 415.846168961434 100 76 76 7600 577600
1070	14656436 3267 5056651 9640923 223.148432333564 417.867152333564 99 76 76 7524 571824
1071	14659703 4954 513415 11463282 30 495.712750087821 152 76 76 11552 877952
1072	14664657 8365 5044203 9640923 222.612398074007 417.867152333564 199 0.4 1 -nan -nan
1076	14673022 6532 709790 11467411 37.30176 495.88992 245 120 120 29400 3528000
1077	14679554 1236 837227 11391393 42.647808 492.686208 46 29 29 1334 38686
1078	14680790 25683 394636 11475107 23.235456572016 496.190560572016 782 5 34 22991 717569
1079	14706473 78263 55488 11489911 3.328256339748 496.804960339748 2402 5 34 57597 1692675
1086	14784736 3306 5152031 11146436 227.242282978438 482.262522558746 100 76 76 7600 577600
1088	14788042 3315 5193256 11180181 229.031312333564 483.623312333564 100 76 76 7600 577600
1089	14791357 2979 513416 11463993 30 495.736825517741 92 76 76 6992 531392
1090	14794336 8209 5152031 11180181 227.242282978438 483.623312333564 200 0.5 1 -nan -nan
1094	14802545 5081 607434 11472993 33.49248 496.13568 191 120 120 22920 2750400
1095	14807626 1235 855164 11397210 43.388704 492.895936 46 29 29 1334 38686
1096	14808861 131 2769589 8382958 124.856448377756 364.104352742391 4 5 34 105 3361
1097	14808992 81509 55496 11489937 3.328256402643 496.804960402643 2493 5 34 62984 1885298
1104	14890501 3294 4991165 9890104 220.243216176282 428.625562900642 100 76 76 7600 577600
1106	14893795 3300 5011954 9897631 221.166992333564 428.957072333564 100 76 76 7600 577600
1107	14897095 3787 513417 11452985 30 495.292098510069 116 76 76 8816 670016
1108	14900882 8303 4991165 9897631 220.243216176282 428.957072333564 200 0.33333333333333 1 -nan -nan
1112	14909185 5745 588444 11454875 32.7552 495.3984 215 120 120 25800 3096000
1113	14914930 1260 589820 11393952 32.817408 492.766224 47 29 29 1363 39527
1114	14916190 18470 55502 11489955 3.328256611071 496.804960611071 563 5 34 15612 470618
1115	14934660 83353 55457 11475079 3.326976441768 496.19056035215 2594 5 34 64752 1934802
