version 2
run CSMA-0-20160824-06:28:25-14837
attr beaconInterval 10s
attr configname CSMA
attr datetime 20160824-06:28:25
attr experiment CSMA
attr inifile simulations/omnetpp.ini
attr iterationvars "$packetLength=76B, $sendInt=2, $beaconInterval=10s, $0=10s/2, $1=3 * 10s"
attr iterationvars2 "$packetLength=76B, $sendInt=2, $beaconInterval=10s, $0=10s/2, $1=3 * 10s, $repetition=0"
attr measurement "$packetLength=76B, $sendInt=2, $beaconInterval=10s, $0=10s/2, $1=3 * 10s"
attr network multi_gateway.Net802154MultiGateway
attr packetLength 76B
attr processid 14837
attr repetition 0
attr replication #0
attr resultdir ../results
attr runnumber 0
attr seedset 0
attr sendInt 2
param **.configurator.addStaticRoutes false
param **.dumpRoutes false
param **.dumpTopology false
param **.host[*].**.gpsr.beaconInterval "${beaconInterval = 10s}"
param **.host[*].**.gpsr.maxJitter ${$beaconInterval/2}
param **.host[*].**.gpsr.neighborValidityInterval "${3 * $beaconInterval}"
param **.host[*].**.gpsr.positionByteLength "2 B"
param **.host[*].**.gpsr.routingStrategy "\"StraightestPath\""
param **.host[*].**.trafficgen.continueSendingDummyPackets true
param **.host[*].**.trafficgen.coolDownDuration 15s
param **.host[*].**.trafficgen.destAddresses "\"host[0].wrappedHost(modulepath)\""
param **.host[*].**.trafficgen.packetLength "${packetLength = 76B}"
param **.host[*].**.trafficgen.sendInterval "exponential(${sendInt=1.0..2.5 step 0.25}s)"
param **.host[*].**.trafficgen.warmUpDuration 160s
param **.host[*].**.wlan[*].mac.queueLength 30
param **.host[*].**.wlan[*].macType "\"Ieee802154NarrowbandMac\""
param **.host[*].**.wlan[*].radio.receiver.minInterferencePower "-100 dBm"
param **.host[*].hostType "\"SimpleHost\""
param **.host[*].mobilityType "\"StaticConcentricWrappingMobility\""
param **.host[0].**.trafficgen.numPackets 0
param **.host[1..].**.trafficgen.numPackets 100
param **.numHosts 62
param **.radioMedium.rangeFilter "\"interferenceRange\""
param **.routingTable.addressType "\"modulepath\""
param **.routingTableType "\"GenericRoutingTable\""

vector 9  Net802154MultiGateway.host[0].wrappedHost.trafficgen  sentDummyPk:vector(packetBytes)  ETV
attr interpolationmode  none
attr source  sentDummyPk
attr title  "dummy packets sent, vector(packetBytes)"
vector 23  Net802154MultiGateway.host[1].wrappedHost.trafficgen  sentDummyPk:vector(packetBytes)  ETV
attr interpolationmode  none
attr source  sentDummyPk
attr title  "dummy packets sent, vector(packetBytes)"
vector 37  Net802154MultiGateway.host[2].wrappedHost.trafficgen  sentDummyPk:vector(packetBytes)  ETV
attr interpolationmode  none
attr source  sentDummyPk
attr title  "dummy packets sent, vector(packetBytes)"
vector 51  Net802154MultiGateway.host[3].wrappedHost.trafficgen  sentDummyPk:vector(packetBytes)  ETV
attr interpolationmode  none
attr source  sentDummyPk
attr title  "dummy packets sent, vector(packetBytes)"
vector 65  Net802154MultiGateway.host[4].wrappedHost.trafficgen  sentDummyPk:vector(packetBytes)  ETV
attr interpolationmode  none
attr source  sentDummyPk
attr title  "dummy packets sent, vector(packetBytes)"
vector 79  Net802154MultiGateway.host[5].wrappedHost.trafficgen  sentDummyPk:vector(packetBytes)  ETV
attr interpolationmode  none
attr source  sentDummyPk
attr title  "dummy packets sent, vector(packetBytes)"
vector 93  Net802154MultiGateway.host[6].wrappedHost.trafficgen  sentDummyPk:vector(packetBytes)  ETV
attr interpolationmode  none
attr source  sentDummyPk
attr title  "dummy packets sent, vector(packetBytes)"
vector 107  Net802154MultiGateway.host[7].wrappedHost.trafficgen  sentDummyPk:vector(packetBytes)  ETV
attr interpolationmode  none
attr source  sentDummyPk
attr title  "dummy packets sent, vector(packetBytes)"
vector 121  Net802154MultiGateway.host[8].wrappedHost.trafficgen  sentDummyPk:vector(packetBytes)  ETV
attr interpolationmode  none
attr source  sentDummyPk
attr title  "dummy packets sent, vector(packetBytes)"
vector 135  Net802154MultiGateway.host[9].wrappedHost.trafficgen  sentDummyPk:vector(packetBytes)  ETV
attr interpolationmode  none
attr source  sentDummyPk
attr title  "dummy packets sent, vector(packetBytes)"
vector 149  Net802154MultiGateway.host[10].wrappedHost.trafficgen  sentDummyPk:vector(packetBytes)  ETV
attr interpolationmode  none
attr source  sentDummyPk
attr title  "dummy packets sent, vector(packetBytes)"
vector 163  Net802154MultiGateway.host[11].wrappedHost.trafficgen  sentDummyPk:vector(packetBytes)  ETV
attr interpolationmode  none
attr source  sentDummyPk
attr title  "dummy packets sent, vector(packetBytes)"
vector 177  Net802154MultiGateway.host[12].wrappedHost.trafficgen  sentDummyPk:vector(packetBytes)  ETV
attr interpolationmode  none
attr source  sentDummyPk
attr title  "dummy packets sent, vector(packetBytes)"
vector 191  Net802154MultiGateway.host[13].wrappedHost.trafficgen  sentDummyPk:vector(packetBytes)  ETV
attr interpolationmode  none
attr source  sentDummyPk
attr title  "dummy packets sent, vector(packetBytes)"
vector 205  Net802154MultiGateway.host[14].wrappedHost.trafficgen  sentDummyPk:vector(packetBytes)  ETV
attr interpolationmode  none
attr source  sentDummyPk
attr title  "dummy packets sent, vector(packetBytes)"
vector 219  Net802154MultiGateway.host[15].wrappedHost.trafficgen  sentDummyPk:vector(packetBytes)  ETV
attr interpolationmode  none
attr source  sentDummyPk
attr title  "dummy packets sent, vector(packetBytes)"
vector 233  Net802154MultiGateway.host[16].wrappedHost.trafficgen  sentDummyPk:vector(packetBytes)  ETV
attr interpolationmode  none
attr source  sentDummyPk
attr title  "dummy packets sent, vector(packetBytes)"
vector 247  Net802154MultiGateway.host[17].wrappedHost.trafficgen  sentDummyPk:vector(packetBytes)  ETV
attr interpolationmode  none
attr source  sentDummyPk
attr title  "dummy packets sent, vector(packetBytes)"
vector 261  Net802154MultiGateway.host[18].wrappedHost.trafficgen  sentDummyPk:vector(packetBytes)  ETV
attr interpolationmode  none
attr source  sentDummyPk
attr title  "dummy packets sent, vector(packetBytes)"
vector 275  Net802154MultiGateway.host[19].wrappedHost.trafficgen  sentDummyPk:vector(packetBytes)  ETV
attr interpolationmode  none
attr source  sentDummyPk
attr title  "dummy packets sent, vector(packetBytes)"
vector 289  Net802154MultiGateway.host[20].wrappedHost.trafficgen  sentDummyPk:vector(packetBytes)  ETV
attr interpolationmode  none
attr source  sentDummyPk
attr title  "dummy packets sent, vector(packetBytes)"
vector 303  Net802154MultiGateway.host[21].wrappedHost.trafficgen  sentDummyPk:vector(packetBytes)  ETV
attr interpolationmode  none
attr source  sentDummyPk
attr title  "dummy packets sent, vector(packetBytes)"
vector 317  Net802154MultiGateway.host[22].wrappedHost.trafficgen  sentDummyPk:vector(packetBytes)  ETV
attr interpolationmode  none
attr source  sentDummyPk
attr title  "dummy packets sent, vector(packetBytes)"
vector 331  Net802154MultiGateway.host[23].wrappedHost.trafficgen  sentDummyPk:vector(packetBytes)  ETV
attr interpolationmode  none
attr source  sentDummyPk
attr title  "dummy packets sent, vector(packetBytes)"
vector 345  Net802154MultiGateway.host[24].wrappedHost.trafficgen  sentDummyPk:vector(packetBytes)  ETV
attr interpolationmode  none
attr source  sentDummyPk
attr title  "dummy packets sent, vector(packetBytes)"
vector 359  Net802154MultiGateway.host[25].wrappedHost.trafficgen  sentDummyPk:vector(packetBytes)  ETV
attr interpolationmode  none
attr source  sentDummyPk
attr title  "dummy packets sent, vector(packetBytes)"
vector 373  Net802154MultiGateway.host[26].wrappedHost.trafficgen  sentDummyPk:vector(packetBytes)  ETV
attr interpolationmode  none
attr source  sentDummyPk
attr title  "dummy packets sent, vector(packetBytes)"
vector 387  Net802154MultiGateway.host[27].wrappedHost.trafficgen  sentDummyPk:vector(packetBytes)  ETV
attr interpolationmode  none
attr source  sentDummyPk
attr title  "dummy packets sent, vector(packetBytes)"
vector 401  Net802154MultiGateway.host[28].wrappedHost.trafficgen  sentDummyPk:vector(packetBytes)  ETV
attr interpolationmode  none
attr source  sentDummyPk
attr title  "dummy packets sent, vector(packetBytes)"
vector 415  Net802154MultiGateway.host[29].wrappedHost.trafficgen  sentDummyPk:vector(packetBytes)  ETV
attr interpolationmode  none
attr source  sentDummyPk
attr title  "dummy packets sent, vector(packetBytes)"
vector 429  Net802154MultiGateway.host[30].wrappedHost.trafficgen  sentDummyPk:vector(packetBytes)  ETV
attr interpolationmode  none
attr source  sentDummyPk
attr title  "dummy packets sent, vector(packetBytes)"
vector 443  Net802154MultiGateway.host[31].wrappedHost.trafficgen  sentDummyPk:vector(packetBytes)  ETV
attr interpolationmode  none
attr source  sentDummyPk
attr title  "dummy packets sent, vector(packetBytes)"
vector 457  Net802154MultiGateway.host[32].wrappedHost.trafficgen  sentDummyPk:vector(packetBytes)  ETV
attr interpolationmode  none
attr source  sentDummyPk
attr title  "dummy packets sent, vector(packetBytes)"
vector 471  Net802154MultiGateway.host[33].wrappedHost.trafficgen  sentDummyPk:vector(packetBytes)  ETV
attr interpolationmode  none
attr source  sentDummyPk
attr title  "dummy packets sent, vector(packetBytes)"
vector 485  Net802154MultiGateway.host[34].wrappedHost.trafficgen  sentDummyPk:vector(packetBytes)  ETV
attr interpolationmode  none
attr source  sentDummyPk
attr title  "dummy packets sent, vector(packetBytes)"
vector 499  Net802154MultiGateway.host[35].wrappedHost.trafficgen  sentDummyPk:vector(packetBytes)  ETV
attr interpolationmode  none
attr source  sentDummyPk
attr title  "dummy packets sent, vector(packetBytes)"
vector 513  Net802154MultiGateway.host[36].wrappedHost.trafficgen  sentDummyPk:vector(packetBytes)  ETV
attr interpolationmode  none
attr source  sentDummyPk
attr title  "dummy packets sent, vector(packetBytes)"
vector 527  Net802154MultiGateway.host[37].wrappedHost.trafficgen  sentDummyPk:vector(packetBytes)  ETV
attr interpolationmode  none
attr source  sentDummyPk
attr title  "dummy packets sent, vector(packetBytes)"
vector 541  Net802154MultiGateway.host[38].wrappedHost.trafficgen  sentDummyPk:vector(packetBytes)  ETV
attr interpolationmode  none
attr source  sentDummyPk
attr title  "dummy packets sent, vector(packetBytes)"
vector 555  Net802154MultiGateway.host[39].wrappedHost.trafficgen  sentDummyPk:vector(packetBytes)  ETV
attr interpolationmode  none
attr source  sentDummyPk
attr title  "dummy packets sent, vector(packetBytes)"
vector 569  Net802154MultiGateway.host[40].wrappedHost.trafficgen  sentDummyPk:vector(packetBytes)  ETV
attr interpolationmode  none
attr source  sentDummyPk
attr title  "dummy packets sent, vector(packetBytes)"
vector 583  Net802154MultiGateway.host[41].wrappedHost.trafficgen  sentDummyPk:vector(packetBytes)  ETV
attr interpolationmode  none
attr source  sentDummyPk
attr title  "dummy packets sent, vector(packetBytes)"
vector 597  Net802154MultiGateway.host[42].wrappedHost.trafficgen  sentDummyPk:vector(packetBytes)  ETV
attr interpolationmode  none
attr source  sentDummyPk
attr title  "dummy packets sent, vector(packetBytes)"
vector 611  Net802154MultiGateway.host[43].wrappedHost.trafficgen  sentDummyPk:vector(packetBytes)  ETV
attr interpolationmode  none
attr source  sentDummyPk
attr title  "dummy packets sent, vector(packetBytes)"
vector 625  Net802154MultiGateway.host[44].wrappedHost.trafficgen  sentDummyPk:vector(packetBytes)  ETV
attr interpolationmode  none
attr source  sentDummyPk
attr title  "dummy packets sent, vector(packetBytes)"
vector 639  Net802154MultiGateway.host[45].wrappedHost.trafficgen  sentDummyPk:vector(packetBytes)  ETV
attr interpolationmode  none
attr source  sentDummyPk
attr title  "dummy packets sent, vector(packetBytes)"
vector 653  Net802154MultiGateway.host[46].wrappedHost.trafficgen  sentDummyPk:vector(packetBytes)  ETV
attr interpolationmode  none
attr source  sentDummyPk
attr title  "dummy packets sent, vector(packetBytes)"
vector 667  Net802154MultiGateway.host[47].wrappedHost.trafficgen  sentDummyPk:vector(packetBytes)  ETV
attr interpolationmode  none
attr source  sentDummyPk
attr title  "dummy packets sent, vector(packetBytes)"
vector 681  Net802154MultiGateway.host[48].wrappedHost.trafficgen  sentDummyPk:vector(packetBytes)  ETV
attr interpolationmode  none
attr source  sentDummyPk
attr title  "dummy packets sent, vector(packetBytes)"
vector 695  Net802154MultiGateway.host[49].wrappedHost.trafficgen  sentDummyPk:vector(packetBytes)  ETV
attr interpolationmode  none
attr source  sentDummyPk
attr title  "dummy packets sent, vector(packetBytes)"
vector 709  Net802154MultiGateway.host[50].wrappedHost.trafficgen  sentDummyPk:vector(packetBytes)  ETV
attr interpolationmode  none
attr source  sentDummyPk
attr title  "dummy packets sent, vector(packetBytes)"
vector 723  Net802154MultiGateway.host[51].wrappedHost.trafficgen  sentDummyPk:vector(packetBytes)  ETV
attr interpolationmode  none
attr source  sentDummyPk
attr title  "dummy packets sent, vector(packetBytes)"
vector 737  Net802154MultiGateway.host[52].wrappedHost.trafficgen  sentDummyPk:vector(packetBytes)  ETV
attr interpolationmode  none
attr source  sentDummyPk
attr title  "dummy packets sent, vector(packetBytes)"
vector 751  Net802154MultiGateway.host[53].wrappedHost.trafficgen  sentDummyPk:vector(packetBytes)  ETV
attr interpolationmode  none
attr source  sentDummyPk
attr title  "dummy packets sent, vector(packetBytes)"
vector 765  Net802154MultiGateway.host[54].wrappedHost.trafficgen  sentDummyPk:vector(packetBytes)  ETV
attr interpolationmode  none
attr source  sentDummyPk
attr title  "dummy packets sent, vector(packetBytes)"
vector 779  Net802154MultiGateway.host[55].wrappedHost.trafficgen  sentDummyPk:vector(packetBytes)  ETV
attr interpolationmode  none
attr source  sentDummyPk
attr title  "dummy packets sent, vector(packetBytes)"
vector 793  Net802154MultiGateway.host[56].wrappedHost.trafficgen  sentDummyPk:vector(packetBytes)  ETV
attr interpolationmode  none
attr source  sentDummyPk
attr title  "dummy packets sent, vector(packetBytes)"
vector 807  Net802154MultiGateway.host[57].wrappedHost.trafficgen  sentDummyPk:vector(packetBytes)  ETV
attr interpolationmode  none
attr source  sentDummyPk
attr title  "dummy packets sent, vector(packetBytes)"
vector 821  Net802154MultiGateway.host[58].wrappedHost.trafficgen  sentDummyPk:vector(packetBytes)  ETV
attr interpolationmode  none
attr source  sentDummyPk
attr title  "dummy packets sent, vector(packetBytes)"
vector 835  Net802154MultiGateway.host[59].wrappedHost.trafficgen  sentDummyPk:vector(packetBytes)  ETV
attr interpolationmode  none
attr source  sentDummyPk
attr title  "dummy packets sent, vector(packetBytes)"
vector 849  Net802154MultiGateway.host[60].wrappedHost.trafficgen  sentDummyPk:vector(packetBytes)  ETV
attr interpolationmode  none
attr source  sentDummyPk
attr title  "dummy packets sent, vector(packetBytes)"
vector 863  Net802154MultiGateway.host[61].wrappedHost.trafficgen  sentDummyPk:vector(packetBytes)  ETV
attr interpolationmode  none
attr source  sentDummyPk
attr title  "dummy packets sent, vector(packetBytes)"
vector 412  Net802154MultiGateway.host[29].wrappedHost.trafficgen  sentPk:vector(packetBytes)  ETV
attr interpolationmode  none
attr source  sentPk
attr title  "packets sent, vector(packetBytes)"
vector 416  Net802154MultiGateway.host[29].wrappedHost.trafficgen  PRR:vector  ETV
attr interpolationmode  none
attr source  count(sinkRcvdPk)/count(sentPk)
attr title  "PRR, vector"
vector 414  Net802154MultiGateway.host[29].wrappedHost.trafficgen  sinkRcvdPk:vector(packetBytes)  ETV
attr interpolationmode  none
attr source  sinkRcvdPk
attr title  "own packets received by sink, vector(packetBytes)"
vector 5  Net802154MultiGateway.host[0].wrappedHost.trafficgen  rcvdPk:vector(packetBytes)  ETV
attr interpolationmode  none
attr source  rcvdPk
attr title  "packets received, vector(packetBytes)"
vector 7  Net802154MultiGateway.host[0].wrappedHost.trafficgen  endToEndDelay:vector  ETV
attr interpolationmode  none
attr source  messageAge(rcvdPk)
attr title  "end-to-end delay, vector"
attr unit  s
vector 734  Net802154MultiGateway.host[52].wrappedHost.trafficgen  sentPk:vector(packetBytes)  ETV
attr interpolationmode  none
attr source  sentPk
attr title  "packets sent, vector(packetBytes)"
vector 738  Net802154MultiGateway.host[52].wrappedHost.trafficgen  PRR:vector  ETV
attr interpolationmode  none
attr source  count(sinkRcvdPk)/count(sentPk)
attr title  "PRR, vector"
vector 736  Net802154MultiGateway.host[52].wrappedHost.trafficgen  sinkRcvdPk:vector(packetBytes)  ETV
attr interpolationmode  none
attr source  sinkRcvdPk
attr title  "own packets received by sink, vector(packetBytes)"
vector 216  Net802154MultiGateway.host[15].wrappedHost.trafficgen  sentPk:vector(packetBytes)  ETV
attr interpolationmode  none
attr source  sentPk
attr title  "packets sent, vector(packetBytes)"
vector 220  Net802154MultiGateway.host[15].wrappedHost.trafficgen  PRR:vector  ETV
attr interpolationmode  none
attr source  count(sinkRcvdPk)/count(sentPk)
attr title  "PRR, vector"
vector 804  Net802154MultiGateway.host[57].wrappedHost.trafficgen  sentPk:vector(packetBytes)  ETV
attr interpolationmode  none
attr source  sentPk
attr title  "packets sent, vector(packetBytes)"
vector 808  Net802154MultiGateway.host[57].wrappedHost.trafficgen  PRR:vector  ETV
attr interpolationmode  none
attr source  count(sinkRcvdPk)/count(sentPk)
attr title  "PRR, vector"
vector 218  Net802154MultiGateway.host[15].wrappedHost.trafficgen  sinkRcvdPk:vector(packetBytes)  ETV
attr interpolationmode  none
attr source  sinkRcvdPk
attr title  "own packets received by sink, vector(packetBytes)"
vector 356  Net802154MultiGateway.host[25].wrappedHost.trafficgen  sentPk:vector(packetBytes)  ETV
attr interpolationmode  none
attr source  sentPk
attr title  "packets sent, vector(packetBytes)"
vector 360  Net802154MultiGateway.host[25].wrappedHost.trafficgen  PRR:vector  ETV
attr interpolationmode  none
attr source  count(sinkRcvdPk)/count(sentPk)
attr title  "PRR, vector"
vector 328  Net802154MultiGateway.host[23].wrappedHost.trafficgen  sentPk:vector(packetBytes)  ETV
attr interpolationmode  none
attr source  sentPk
attr title  "packets sent, vector(packetBytes)"
vector 332  Net802154MultiGateway.host[23].wrappedHost.trafficgen  PRR:vector  ETV
attr interpolationmode  none
attr source  count(sinkRcvdPk)/count(sentPk)
attr title  "PRR, vector"
vector 566  Net802154MultiGateway.host[40].wrappedHost.trafficgen  sentPk:vector(packetBytes)  ETV
attr interpolationmode  none
attr source  sentPk
attr title  "packets sent, vector(packetBytes)"
vector 570  Net802154MultiGateway.host[40].wrappedHost.trafficgen  PRR:vector  ETV
attr interpolationmode  none
attr source  count(sinkRcvdPk)/count(sentPk)
attr title  "PRR, vector"
vector 358  Net802154MultiGateway.host[25].wrappedHost.trafficgen  sinkRcvdPk:vector(packetBytes)  ETV
attr interpolationmode  none
attr source  sinkRcvdPk
attr title  "own packets received by sink, vector(packetBytes)"
vector 806  Net802154MultiGateway.host[57].wrappedHost.trafficgen  sinkRcvdPk:vector(packetBytes)  ETV
attr interpolationmode  none
attr source  sinkRcvdPk
attr title  "own packets received by sink, vector(packetBytes)"
vector 330  Net802154MultiGateway.host[23].wrappedHost.trafficgen  sinkRcvdPk:vector(packetBytes)  ETV
attr interpolationmode  none
attr source  sinkRcvdPk
attr title  "own packets received by sink, vector(packetBytes)"
vector 568  Net802154MultiGateway.host[40].wrappedHost.trafficgen  sinkRcvdPk:vector(packetBytes)  ETV
attr interpolationmode  none
attr source  sinkRcvdPk
attr title  "own packets received by sink, vector(packetBytes)"
vector 622  Net802154MultiGateway.host[44].wrappedHost.trafficgen  sentPk:vector(packetBytes)  ETV
attr interpolationmode  none
attr source  sentPk
attr title  "packets sent, vector(packetBytes)"
vector 626  Net802154MultiGateway.host[44].wrappedHost.trafficgen  PRR:vector  ETV
attr interpolationmode  none
attr source  count(sinkRcvdPk)/count(sentPk)
attr title  "PRR, vector"
vector 624  Net802154MultiGateway.host[44].wrappedHost.trafficgen  sinkRcvdPk:vector(packetBytes)  ETV
attr interpolationmode  none
attr source  sinkRcvdPk
attr title  "own packets received by sink, vector(packetBytes)"
vector 202  Net802154MultiGateway.host[14].wrappedHost.trafficgen  sentPk:vector(packetBytes)  ETV
attr interpolationmode  none
attr source  sentPk
attr title  "packets sent, vector(packetBytes)"
vector 206  Net802154MultiGateway.host[14].wrappedHost.trafficgen  PRR:vector  ETV
attr interpolationmode  none
attr source  count(sinkRcvdPk)/count(sentPk)
attr title  "PRR, vector"
vector 204  Net802154MultiGateway.host[14].wrappedHost.trafficgen  sinkRcvdPk:vector(packetBytes)  ETV
attr interpolationmode  none
attr source  sinkRcvdPk
attr title  "own packets received by sink, vector(packetBytes)"
vector 104  Net802154MultiGateway.host[7].wrappedHost.trafficgen  sentPk:vector(packetBytes)  ETV
attr interpolationmode  none
attr source  sentPk
attr title  "packets sent, vector(packetBytes)"
vector 108  Net802154MultiGateway.host[7].wrappedHost.trafficgen  PRR:vector  ETV
attr interpolationmode  none
attr source  count(sinkRcvdPk)/count(sentPk)
attr title  "PRR, vector"
vector 776  Net802154MultiGateway.host[55].wrappedHost.trafficgen  sentPk:vector(packetBytes)  ETV
attr interpolationmode  none
attr source  sentPk
attr title  "packets sent, vector(packetBytes)"
vector 780  Net802154MultiGateway.host[55].wrappedHost.trafficgen  PRR:vector  ETV
attr interpolationmode  none
attr source  count(sinkRcvdPk)/count(sentPk)
attr title  "PRR, vector"
vector 106  Net802154MultiGateway.host[7].wrappedHost.trafficgen  sinkRcvdPk:vector(packetBytes)  ETV
attr interpolationmode  none
attr source  sinkRcvdPk
attr title  "own packets received by sink, vector(packetBytes)"
vector 272  Net802154MultiGateway.host[19].wrappedHost.trafficgen  sentPk:vector(packetBytes)  ETV
attr interpolationmode  none
attr source  sentPk
attr title  "packets sent, vector(packetBytes)"
vector 276  Net802154MultiGateway.host[19].wrappedHost.trafficgen  PRR:vector  ETV
attr interpolationmode  none
attr source  count(sinkRcvdPk)/count(sentPk)
attr title  "PRR, vector"
vector 778  Net802154MultiGateway.host[55].wrappedHost.trafficgen  sinkRcvdPk:vector(packetBytes)  ETV
attr interpolationmode  none
attr source  sinkRcvdPk
attr title  "own packets received by sink, vector(packetBytes)"
vector 274  Net802154MultiGateway.host[19].wrappedHost.trafficgen  sinkRcvdPk:vector(packetBytes)  ETV
attr interpolationmode  none
attr source  sinkRcvdPk
attr title  "own packets received by sink, vector(packetBytes)"
vector 790  Net802154MultiGateway.host[56].wrappedHost.trafficgen  sentPk:vector(packetBytes)  ETV
attr interpolationmode  none
attr source  sentPk
attr title  "packets sent, vector(packetBytes)"
vector 794  Net802154MultiGateway.host[56].wrappedHost.trafficgen  PRR:vector  ETV
attr interpolationmode  none
attr source  count(sinkRcvdPk)/count(sentPk)
attr title  "PRR, vector"
vector 468  Net802154MultiGateway.host[33].wrappedHost.trafficgen  sentPk:vector(packetBytes)  ETV
attr interpolationmode  none
attr source  sentPk
attr title  "packets sent, vector(packetBytes)"
vector 472  Net802154MultiGateway.host[33].wrappedHost.trafficgen  PRR:vector  ETV
attr interpolationmode  none
attr source  count(sinkRcvdPk)/count(sentPk)
attr title  "PRR, vector"
vector 792  Net802154MultiGateway.host[56].wrappedHost.trafficgen  sinkRcvdPk:vector(packetBytes)  ETV
attr interpolationmode  none
attr source  sinkRcvdPk
attr title  "own packets received by sink, vector(packetBytes)"
vector 470  Net802154MultiGateway.host[33].wrappedHost.trafficgen  sinkRcvdPk:vector(packetBytes)  ETV
attr interpolationmode  none
attr source  sinkRcvdPk
attr title  "own packets received by sink, vector(packetBytes)"
vector 692  Net802154MultiGateway.host[49].wrappedHost.trafficgen  sentPk:vector(packetBytes)  ETV
attr interpolationmode  none
attr source  sentPk
attr title  "packets sent, vector(packetBytes)"
vector 696  Net802154MultiGateway.host[49].wrappedHost.trafficgen  PRR:vector  ETV
attr interpolationmode  none
attr source  count(sinkRcvdPk)/count(sentPk)
attr title  "PRR, vector"
vector 720  Net802154MultiGateway.host[51].wrappedHost.trafficgen  sentPk:vector(packetBytes)  ETV
attr interpolationmode  none
attr source  sentPk
attr title  "packets sent, vector(packetBytes)"
vector 724  Net802154MultiGateway.host[51].wrappedHost.trafficgen  PRR:vector  ETV
attr interpolationmode  none
attr source  count(sinkRcvdPk)/count(sentPk)
attr title  "PRR, vector"
vector 694  Net802154MultiGateway.host[49].wrappedHost.trafficgen  sinkRcvdPk:vector(packetBytes)  ETV
attr interpolationmode  none
attr source  sinkRcvdPk
attr title  "own packets received by sink, vector(packetBytes)"
vector 722  Net802154MultiGateway.host[51].wrappedHost.trafficgen  sinkRcvdPk:vector(packetBytes)  ETV
attr interpolationmode  none
attr source  sinkRcvdPk
attr title  "own packets received by sink, vector(packetBytes)"
vector 650  Net802154MultiGateway.host[46].wrappedHost.trafficgen  sentPk:vector(packetBytes)  ETV
attr interpolationmode  none
attr source  sentPk
attr title  "packets sent, vector(packetBytes)"
vector 654  Net802154MultiGateway.host[46].wrappedHost.trafficgen  PRR:vector  ETV
attr interpolationmode  none
attr source  count(sinkRcvdPk)/count(sentPk)
attr title  "PRR, vector"
vector 440  Net802154MultiGateway.host[31].wrappedHost.trafficgen  sentPk:vector(packetBytes)  ETV
attr interpolationmode  none
attr source  sentPk
attr title  "packets sent, vector(packetBytes)"
vector 444  Net802154MultiGateway.host[31].wrappedHost.trafficgen  PRR:vector  ETV
attr interpolationmode  none
attr source  count(sinkRcvdPk)/count(sentPk)
attr title  "PRR, vector"
vector 174  Net802154MultiGateway.host[12].wrappedHost.trafficgen  sentPk:vector(packetBytes)  ETV
attr interpolationmode  none
attr source  sentPk
attr title  "packets sent, vector(packetBytes)"
vector 178  Net802154MultiGateway.host[12].wrappedHost.trafficgen  PRR:vector  ETV
attr interpolationmode  none
attr source  count(sinkRcvdPk)/count(sentPk)
attr title  "PRR, vector"
vector 652  Net802154MultiGateway.host[46].wrappedHost.trafficgen  sinkRcvdPk:vector(packetBytes)  ETV
attr interpolationmode  none
attr source  sinkRcvdPk
attr title  "own packets received by sink, vector(packetBytes)"
vector 442  Net802154MultiGateway.host[31].wrappedHost.trafficgen  sinkRcvdPk:vector(packetBytes)  ETV
attr interpolationmode  none
attr source  sinkRcvdPk
attr title  "own packets received by sink, vector(packetBytes)"
vector 176  Net802154MultiGateway.host[12].wrappedHost.trafficgen  sinkRcvdPk:vector(packetBytes)  ETV
attr interpolationmode  none
attr source  sinkRcvdPk
attr title  "own packets received by sink, vector(packetBytes)"
vector 482  Net802154MultiGateway.host[34].wrappedHost.trafficgen  sentPk:vector(packetBytes)  ETV
attr interpolationmode  none
attr source  sentPk
attr title  "packets sent, vector(packetBytes)"
vector 486  Net802154MultiGateway.host[34].wrappedHost.trafficgen  PRR:vector  ETV
attr interpolationmode  none
attr source  count(sinkRcvdPk)/count(sentPk)
attr title  "PRR, vector"
vector 484  Net802154MultiGateway.host[34].wrappedHost.trafficgen  sinkRcvdPk:vector(packetBytes)  ETV
attr interpolationmode  none
attr source  sinkRcvdPk
attr title  "own packets received by sink, vector(packetBytes)"
vector 846  Net802154MultiGateway.host[60].wrappedHost.trafficgen  sentPk:vector(packetBytes)  ETV
attr interpolationmode  none
attr source  sentPk
attr title  "packets sent, vector(packetBytes)"
vector 850  Net802154MultiGateway.host[60].wrappedHost.trafficgen  PRR:vector  ETV
attr interpolationmode  none
attr source  count(sinkRcvdPk)/count(sentPk)
attr title  "PRR, vector"
vector 848  Net802154MultiGateway.host[60].wrappedHost.trafficgen  sinkRcvdPk:vector(packetBytes)  ETV
attr interpolationmode  none
attr source  sinkRcvdPk
attr title  "own packets received by sink, vector(packetBytes)"
vector 678  Net802154MultiGateway.host[48].wrappedHost.trafficgen  sentPk:vector(packetBytes)  ETV
attr interpolationmode  none
attr source  sentPk
attr title  "packets sent, vector(packetBytes)"
vector 682  Net802154MultiGateway.host[48].wrappedHost.trafficgen  PRR:vector  ETV
attr interpolationmode  none
attr source  count(sinkRcvdPk)/count(sentPk)
attr title  "PRR, vector"
vector 680  Net802154MultiGateway.host[48].wrappedHost.trafficgen  sinkRcvdPk:vector(packetBytes)  ETV
attr interpolationmode  none
attr source  sinkRcvdPk
attr title  "own packets received by sink, vector(packetBytes)"
vector 230  Net802154MultiGateway.host[16].wrappedHost.trafficgen  sentPk:vector(packetBytes)  ETV
attr interpolationmode  none
attr source  sentPk
attr title  "packets sent, vector(packetBytes)"
vector 234  Net802154MultiGateway.host[16].wrappedHost.trafficgen  PRR:vector  ETV
attr interpolationmode  none
attr source  count(sinkRcvdPk)/count(sentPk)
attr title  "PRR, vector"
vector 232  Net802154MultiGateway.host[16].wrappedHost.trafficgen  sinkRcvdPk:vector(packetBytes)  ETV
attr interpolationmode  none
attr source  sinkRcvdPk
attr title  "own packets received by sink, vector(packetBytes)"
vector 706  Net802154MultiGateway.host[50].wrappedHost.trafficgen  sentPk:vector(packetBytes)  ETV
attr interpolationmode  none
attr source  sentPk
attr title  "packets sent, vector(packetBytes)"
vector 710  Net802154MultiGateway.host[50].wrappedHost.trafficgen  PRR:vector  ETV
attr interpolationmode  none
attr source  count(sinkRcvdPk)/count(sentPk)
attr title  "PRR, vector"
vector 708  Net802154MultiGateway.host[50].wrappedHost.trafficgen  sinkRcvdPk:vector(packetBytes)  ETV
attr interpolationmode  none
attr source  sinkRcvdPk
attr title  "own packets received by sink, vector(packetBytes)"
vector 552  Net802154MultiGateway.host[39].wrappedHost.trafficgen  sentPk:vector(packetBytes)  ETV
attr interpolationmode  none
attr source  sentPk
attr title  "packets sent, vector(packetBytes)"
vector 556  Net802154MultiGateway.host[39].wrappedHost.trafficgen  PRR:vector  ETV
attr interpolationmode  none
attr source  count(sinkRcvdPk)/count(sentPk)
attr title  "PRR, vector"
vector 554  Net802154MultiGateway.host[39].wrappedHost.trafficgen  sinkRcvdPk:vector(packetBytes)  ETV
attr interpolationmode  none
attr source  sinkRcvdPk
attr title  "own packets received by sink, vector(packetBytes)"
vector 20  Net802154MultiGateway.host[1].wrappedHost.trafficgen  sentPk:vector(packetBytes)  ETV
attr interpolationmode  none
attr source  sentPk
attr title  "packets sent, vector(packetBytes)"
vector 24  Net802154MultiGateway.host[1].wrappedHost.trafficgen  PRR:vector  ETV
attr interpolationmode  none
attr source  count(sinkRcvdPk)/count(sentPk)
attr title  "PRR, vector"
vector 22  Net802154MultiGateway.host[1].wrappedHost.trafficgen  sinkRcvdPk:vector(packetBytes)  ETV
attr interpolationmode  none
attr source  sinkRcvdPk
attr title  "own packets received by sink, vector(packetBytes)"
vector 538  Net802154MultiGateway.host[38].wrappedHost.trafficgen  sentPk:vector(packetBytes)  ETV
attr interpolationmode  none
attr source  sentPk
attr title  "packets sent, vector(packetBytes)"
vector 542  Net802154MultiGateway.host[38].wrappedHost.trafficgen  PRR:vector  ETV
attr interpolationmode  none
attr source  count(sinkRcvdPk)/count(sentPk)
attr title  "PRR, vector"
vector 118  Net802154MultiGateway.host[8].wrappedHost.trafficgen  sentPk:vector(packetBytes)  ETV
attr interpolationmode  none
attr source  sentPk
attr title  "packets sent, vector(packetBytes)"
vector 122  Net802154MultiGateway.host[8].wrappedHost.trafficgen  PRR:vector  ETV
attr interpolationmode  none
attr source  count(sinkRcvdPk)/count(sentPk)
attr title  "PRR, vector"
vector 120  Net802154MultiGateway.host[8].wrappedHost.trafficgen  sinkRcvdPk:vector(packetBytes)  ETV
attr interpolationmode  none
attr source  sinkRcvdPk
attr title  "own packets received by sink, vector(packetBytes)"
vector 540  Net802154MultiGateway.host[38].wrappedHost.trafficgen  sinkRcvdPk:vector(packetBytes)  ETV
attr interpolationmode  none
attr source  sinkRcvdPk
attr title  "own packets received by sink, vector(packetBytes)"
vector 314  Net802154MultiGateway.host[22].wrappedHost.trafficgen  sentPk:vector(packetBytes)  ETV
attr interpolationmode  none
attr source  sentPk
attr title  "packets sent, vector(packetBytes)"
vector 318  Net802154MultiGateway.host[22].wrappedHost.trafficgen  PRR:vector  ETV
attr interpolationmode  none
attr source  count(sinkRcvdPk)/count(sentPk)
attr title  "PRR, vector"
vector 316  Net802154MultiGateway.host[22].wrappedHost.trafficgen  sinkRcvdPk:vector(packetBytes)  ETV
attr interpolationmode  none
attr source  sinkRcvdPk
attr title  "own packets received by sink, vector(packetBytes)"
vector 454  Net802154MultiGateway.host[32].wrappedHost.trafficgen  sentPk:vector(packetBytes)  ETV
attr interpolationmode  none
attr source  sentPk
attr title  "packets sent, vector(packetBytes)"
vector 458  Net802154MultiGateway.host[32].wrappedHost.trafficgen  PRR:vector  ETV
attr interpolationmode  none
attr source  count(sinkRcvdPk)/count(sentPk)
attr title  "PRR, vector"
vector 456  Net802154MultiGateway.host[32].wrappedHost.trafficgen  sinkRcvdPk:vector(packetBytes)  ETV
attr interpolationmode  none
attr source  sinkRcvdPk
attr title  "own packets received by sink, vector(packetBytes)"
vector 160  Net802154MultiGateway.host[11].wrappedHost.trafficgen  sentPk:vector(packetBytes)  ETV
attr interpolationmode  none
attr source  sentPk
attr title  "packets sent, vector(packetBytes)"
vector 164  Net802154MultiGateway.host[11].wrappedHost.trafficgen  PRR:vector  ETV
attr interpolationmode  none
attr source  count(sinkRcvdPk)/count(sentPk)
attr title  "PRR, vector"
vector 162  Net802154MultiGateway.host[11].wrappedHost.trafficgen  sinkRcvdPk:vector(packetBytes)  ETV
attr interpolationmode  none
attr source  sinkRcvdPk
attr title  "own packets received by sink, vector(packetBytes)"
vector 496  Net802154MultiGateway.host[35].wrappedHost.trafficgen  sentPk:vector(packetBytes)  ETV
attr interpolationmode  none
attr source  sentPk
attr title  "packets sent, vector(packetBytes)"
vector 500  Net802154MultiGateway.host[35].wrappedHost.trafficgen  PRR:vector  ETV
attr interpolationmode  none
attr source  count(sinkRcvdPk)/count(sentPk)
attr title  "PRR, vector"
vector 498  Net802154MultiGateway.host[35].wrappedHost.trafficgen  sinkRcvdPk:vector(packetBytes)  ETV
attr interpolationmode  none
attr source  sinkRcvdPk
attr title  "own packets received by sink, vector(packetBytes)"
vector 510  Net802154MultiGateway.host[36].wrappedHost.trafficgen  sentPk:vector(packetBytes)  ETV
attr interpolationmode  none
attr source  sentPk
attr title  "packets sent, vector(packetBytes)"
vector 514  Net802154MultiGateway.host[36].wrappedHost.trafficgen  PRR:vector  ETV
attr interpolationmode  none
attr source  count(sinkRcvdPk)/count(sentPk)
attr title  "PRR, vector"
vector 188  Net802154MultiGateway.host[13].wrappedHost.trafficgen  sentPk:vector(packetBytes)  ETV
attr interpolationmode  none
attr source  sentPk
attr title  "packets sent, vector(packetBytes)"
vector 192  Net802154MultiGateway.host[13].wrappedHost.trafficgen  PRR:vector  ETV
attr interpolationmode  none
attr source  count(sinkRcvdPk)/count(sentPk)
attr title  "PRR, vector"
vector 512  Net802154MultiGateway.host[36].wrappedHost.trafficgen  sinkRcvdPk:vector(packetBytes)  ETV
attr interpolationmode  none
attr source  sinkRcvdPk
attr title  "own packets received by sink, vector(packetBytes)"
vector 190  Net802154MultiGateway.host[13].wrappedHost.trafficgen  sinkRcvdPk:vector(packetBytes)  ETV
attr interpolationmode  none
attr source  sinkRcvdPk
attr title  "own packets received by sink, vector(packetBytes)"
vector 748  Net802154MultiGateway.host[53].wrappedHost.trafficgen  sentPk:vector(packetBytes)  ETV
attr interpolationmode  none
attr source  sentPk
attr title  "packets sent, vector(packetBytes)"
vector 752  Net802154MultiGateway.host[53].wrappedHost.trafficgen  PRR:vector  ETV
attr interpolationmode  none
attr source  count(sinkRcvdPk)/count(sentPk)
attr title  "PRR, vector"
vector 636  Net802154MultiGateway.host[45].wrappedHost.trafficgen  sentPk:vector(packetBytes)  ETV
attr interpolationmode  none
attr source  sentPk
attr title  "packets sent, vector(packetBytes)"
vector 640  Net802154MultiGateway.host[45].wrappedHost.trafficgen  PRR:vector  ETV
attr interpolationmode  none
attr source  count(sinkRcvdPk)/count(sentPk)
attr title  "PRR, vector"
vector 750  Net802154MultiGateway.host[53].wrappedHost.trafficgen  sinkRcvdPk:vector(packetBytes)  ETV
attr interpolationmode  none
attr source  sinkRcvdPk
attr title  "own packets received by sink, vector(packetBytes)"
vector 608  Net802154MultiGateway.host[43].wrappedHost.trafficgen  sentPk:vector(packetBytes)  ETV
attr interpolationmode  none
attr source  sentPk
attr title  "packets sent, vector(packetBytes)"
vector 612  Net802154MultiGateway.host[43].wrappedHost.trafficgen  PRR:vector  ETV
attr interpolationmode  none
attr source  count(sinkRcvdPk)/count(sentPk)
attr title  "PRR, vector"
vector 638  Net802154MultiGateway.host[45].wrappedHost.trafficgen  sinkRcvdPk:vector(packetBytes)  ETV
attr interpolationmode  none
attr source  sinkRcvdPk
attr title  "own packets received by sink, vector(packetBytes)"
vector 860  Net802154MultiGateway.host[61].wrappedHost.trafficgen  sentPk:vector(packetBytes)  ETV
attr interpolationmode  none
attr source  sentPk
attr title  "packets sent, vector(packetBytes)"
vector 864  Net802154MultiGateway.host[61].wrappedHost.trafficgen  PRR:vector  ETV
attr interpolationmode  none
attr source  count(sinkRcvdPk)/count(sentPk)
attr title  "PRR, vector"
vector 610  Net802154MultiGateway.host[43].wrappedHost.trafficgen  sinkRcvdPk:vector(packetBytes)  ETV
attr interpolationmode  none
attr source  sinkRcvdPk
attr title  "own packets received by sink, vector(packetBytes)"
vector 244  Net802154MultiGateway.host[17].wrappedHost.trafficgen  sentPk:vector(packetBytes)  ETV
attr interpolationmode  none
attr source  sentPk
attr title  "packets sent, vector(packetBytes)"
vector 248  Net802154MultiGateway.host[17].wrappedHost.trafficgen  PRR:vector  ETV
attr interpolationmode  none
attr source  count(sinkRcvdPk)/count(sentPk)
attr title  "PRR, vector"
vector 862  Net802154MultiGateway.host[61].wrappedHost.trafficgen  sinkRcvdPk:vector(packetBytes)  ETV
attr interpolationmode  none
attr source  sinkRcvdPk
attr title  "own packets received by sink, vector(packetBytes)"
vector 246  Net802154MultiGateway.host[17].wrappedHost.trafficgen  sinkRcvdPk:vector(packetBytes)  ETV
attr interpolationmode  none
attr source  sinkRcvdPk
attr title  "own packets received by sink, vector(packetBytes)"
vector 384  Net802154MultiGateway.host[27].wrappedHost.trafficgen  sentPk:vector(packetBytes)  ETV
attr interpolationmode  none
attr source  sentPk
attr title  "packets sent, vector(packetBytes)"
vector 388  Net802154MultiGateway.host[27].wrappedHost.trafficgen  PRR:vector  ETV
attr interpolationmode  none
attr source  count(sinkRcvdPk)/count(sentPk)
attr title  "PRR, vector"
vector 386  Net802154MultiGateway.host[27].wrappedHost.trafficgen  sinkRcvdPk:vector(packetBytes)  ETV
attr interpolationmode  none
attr source  sinkRcvdPk
attr title  "own packets received by sink, vector(packetBytes)"
vector 762  Net802154MultiGateway.host[54].wrappedHost.trafficgen  sentPk:vector(packetBytes)  ETV
attr interpolationmode  none
attr source  sentPk
attr title  "packets sent, vector(packetBytes)"
vector 766  Net802154MultiGateway.host[54].wrappedHost.trafficgen  PRR:vector  ETV
attr interpolationmode  none
attr source  count(sinkRcvdPk)/count(sentPk)
attr title  "PRR, vector"
vector 764  Net802154MultiGateway.host[54].wrappedHost.trafficgen  sinkRcvdPk:vector(packetBytes)  ETV
attr interpolationmode  none
attr source  sinkRcvdPk
attr title  "own packets received by sink, vector(packetBytes)"
vector 146  Net802154MultiGateway.host[10].wrappedHost.trafficgen  sentPk:vector(packetBytes)  ETV
attr interpolationmode  none
attr source  sentPk
attr title  "packets sent, vector(packetBytes)"
vector 150  Net802154MultiGateway.host[10].wrappedHost.trafficgen  PRR:vector  ETV
attr interpolationmode  none
attr source  count(sinkRcvdPk)/count(sentPk)
attr title  "PRR, vector"
vector 148  Net802154MultiGateway.host[10].wrappedHost.trafficgen  sinkRcvdPk:vector(packetBytes)  ETV
attr interpolationmode  none
attr source  sinkRcvdPk
attr title  "own packets received by sink, vector(packetBytes)"
vector 426  Net802154MultiGateway.host[30].wrappedHost.trafficgen  sentPk:vector(packetBytes)  ETV
attr interpolationmode  none
attr source  sentPk
attr title  "packets sent, vector(packetBytes)"
vector 430  Net802154MultiGateway.host[30].wrappedHost.trafficgen  PRR:vector  ETV
attr interpolationmode  none
attr source  count(sinkRcvdPk)/count(sentPk)
attr title  "PRR, vector"
vector 342  Net802154MultiGateway.host[24].wrappedHost.trafficgen  sentPk:vector(packetBytes)  ETV
attr interpolationmode  none
attr source  sentPk
attr title  "packets sent, vector(packetBytes)"
vector 346  Net802154MultiGateway.host[24].wrappedHost.trafficgen  PRR:vector  ETV
attr interpolationmode  none
attr source  count(sinkRcvdPk)/count(sentPk)
attr title  "PRR, vector"
vector 594  Net802154MultiGateway.host[42].wrappedHost.trafficgen  sentPk:vector(packetBytes)  ETV
attr interpolationmode  none
attr source  sentPk
attr title  "packets sent, vector(packetBytes)"
vector 598  Net802154MultiGateway.host[42].wrappedHost.trafficgen  PRR:vector  ETV
attr interpolationmode  none
attr source  count(sinkRcvdPk)/count(sentPk)
attr title  "PRR, vector"
vector 344  Net802154MultiGateway.host[24].wrappedHost.trafficgen  sinkRcvdPk:vector(packetBytes)  ETV
attr interpolationmode  none
attr source  sinkRcvdPk
attr title  "own packets received by sink, vector(packetBytes)"
vector 596  Net802154MultiGateway.host[42].wrappedHost.trafficgen  sinkRcvdPk:vector(packetBytes)  ETV
attr interpolationmode  none
attr source  sinkRcvdPk
attr title  "own packets received by sink, vector(packetBytes)"
vector 428  Net802154MultiGateway.host[30].wrappedHost.trafficgen  sinkRcvdPk:vector(packetBytes)  ETV
attr interpolationmode  none
attr source  sinkRcvdPk
attr title  "own packets received by sink, vector(packetBytes)"
vector 300  Net802154MultiGateway.host[21].wrappedHost.trafficgen  sentPk:vector(packetBytes)  ETV
attr interpolationmode  none
attr source  sentPk
attr title  "packets sent, vector(packetBytes)"
vector 304  Net802154MultiGateway.host[21].wrappedHost.trafficgen  PRR:vector  ETV
attr interpolationmode  none
attr source  count(sinkRcvdPk)/count(sentPk)
attr title  "PRR, vector"
vector 398  Net802154MultiGateway.host[28].wrappedHost.trafficgen  sentPk:vector(packetBytes)  ETV
attr interpolationmode  none
attr source  sentPk
attr title  "packets sent, vector(packetBytes)"
vector 402  Net802154MultiGateway.host[28].wrappedHost.trafficgen  PRR:vector  ETV
attr interpolationmode  none
attr source  count(sinkRcvdPk)/count(sentPk)
attr title  "PRR, vector"
vector 302  Net802154MultiGateway.host[21].wrappedHost.trafficgen  sinkRcvdPk:vector(packetBytes)  ETV
attr interpolationmode  none
attr source  sinkRcvdPk
attr title  "own packets received by sink, vector(packetBytes)"
vector 400  Net802154MultiGateway.host[28].wrappedHost.trafficgen  sinkRcvdPk:vector(packetBytes)  ETV
attr interpolationmode  none
attr source  sinkRcvdPk
attr title  "own packets received by sink, vector(packetBytes)"
vector 34  Net802154MultiGateway.host[2].wrappedHost.trafficgen  sentPk:vector(packetBytes)  ETV
attr interpolationmode  none
attr source  sentPk
attr title  "packets sent, vector(packetBytes)"
vector 38  Net802154MultiGateway.host[2].wrappedHost.trafficgen  PRR:vector  ETV
attr interpolationmode  none
attr source  count(sinkRcvdPk)/count(sentPk)
attr title  "PRR, vector"
vector 36  Net802154MultiGateway.host[2].wrappedHost.trafficgen  sinkRcvdPk:vector(packetBytes)  ETV
attr interpolationmode  none
attr source  sinkRcvdPk
attr title  "own packets received by sink, vector(packetBytes)"
vector 524  Net802154MultiGateway.host[37].wrappedHost.trafficgen  sentPk:vector(packetBytes)  ETV
attr interpolationmode  none
attr source  sentPk
attr title  "packets sent, vector(packetBytes)"
vector 528  Net802154MultiGateway.host[37].wrappedHost.trafficgen  PRR:vector  ETV
attr interpolationmode  none
attr source  count(sinkRcvdPk)/count(sentPk)
attr title  "PRR, vector"
vector 526  Net802154MultiGateway.host[37].wrappedHost.trafficgen  sinkRcvdPk:vector(packetBytes)  ETV
attr interpolationmode  none
attr source  sinkRcvdPk
attr title  "own packets received by sink, vector(packetBytes)"
vector 76  Net802154MultiGateway.host[5].wrappedHost.trafficgen  sentPk:vector(packetBytes)  ETV
attr interpolationmode  none
attr source  sentPk
attr title  "packets sent, vector(packetBytes)"
vector 80  Net802154MultiGateway.host[5].wrappedHost.trafficgen  PRR:vector  ETV
attr interpolationmode  none
attr source  count(sinkRcvdPk)/count(sentPk)
attr title  "PRR, vector"
vector 78  Net802154MultiGateway.host[5].wrappedHost.trafficgen  sinkRcvdPk:vector(packetBytes)  ETV
attr interpolationmode  none
attr source  sinkRcvdPk
attr title  "own packets received by sink, vector(packetBytes)"
vector 62  Net802154MultiGateway.host[4].wrappedHost.trafficgen  sentPk:vector(packetBytes)  ETV
attr interpolationmode  none
attr source  sentPk
attr title  "packets sent, vector(packetBytes)"
vector 66  Net802154MultiGateway.host[4].wrappedHost.trafficgen  PRR:vector  ETV
attr interpolationmode  none
attr source  count(sinkRcvdPk)/count(sentPk)
attr title  "PRR, vector"
vector 64  Net802154MultiGateway.host[4].wrappedHost.trafficgen  sinkRcvdPk:vector(packetBytes)  ETV
attr interpolationmode  none
attr source  sinkRcvdPk
attr title  "own packets received by sink, vector(packetBytes)"
vector 258  Net802154MultiGateway.host[18].wrappedHost.trafficgen  sentPk:vector(packetBytes)  ETV
attr interpolationmode  none
attr source  sentPk
attr title  "packets sent, vector(packetBytes)"
vector 262  Net802154MultiGateway.host[18].wrappedHost.trafficgen  PRR:vector  ETV
attr interpolationmode  none
attr source  count(sinkRcvdPk)/count(sentPk)
attr title  "PRR, vector"
vector 260  Net802154MultiGateway.host[18].wrappedHost.trafficgen  sinkRcvdPk:vector(packetBytes)  ETV
attr interpolationmode  none
attr source  sinkRcvdPk
attr title  "own packets received by sink, vector(packetBytes)"
vector 818  Net802154MultiGateway.host[58].wrappedHost.trafficgen  sentPk:vector(packetBytes)  ETV
attr interpolationmode  none
attr source  sentPk
attr title  "packets sent, vector(packetBytes)"
vector 822  Net802154MultiGateway.host[58].wrappedHost.trafficgen  PRR:vector  ETV
attr interpolationmode  none
attr source  count(sinkRcvdPk)/count(sentPk)
attr title  "PRR, vector"
vector 820  Net802154MultiGateway.host[58].wrappedHost.trafficgen  sinkRcvdPk:vector(packetBytes)  ETV
attr interpolationmode  none
attr source  sinkRcvdPk
attr title  "own packets received by sink, vector(packetBytes)"
vector 286  Net802154MultiGateway.host[20].wrappedHost.trafficgen  sentPk:vector(packetBytes)  ETV
attr interpolationmode  none
attr source  sentPk
attr title  "packets sent, vector(packetBytes)"
vector 290  Net802154MultiGateway.host[20].wrappedHost.trafficgen  PRR:vector  ETV
attr interpolationmode  none
attr source  count(sinkRcvdPk)/count(sentPk)
attr title  "PRR, vector"
vector 288  Net802154MultiGateway.host[20].wrappedHost.trafficgen  sinkRcvdPk:vector(packetBytes)  ETV
attr interpolationmode  none
attr source  sinkRcvdPk
attr title  "own packets received by sink, vector(packetBytes)"
vector 832  Net802154MultiGateway.host[59].wrappedHost.trafficgen  sentPk:vector(packetBytes)  ETV
attr interpolationmode  none
attr source  sentPk
attr title  "packets sent, vector(packetBytes)"
vector 836  Net802154MultiGateway.host[59].wrappedHost.trafficgen  PRR:vector  ETV
attr interpolationmode  none
attr source  count(sinkRcvdPk)/count(sentPk)
attr title  "PRR, vector"
vector 834  Net802154MultiGateway.host[59].wrappedHost.trafficgen  sinkRcvdPk:vector(packetBytes)  ETV
attr interpolationmode  none
attr source  sinkRcvdPk
attr title  "own packets received by sink, vector(packetBytes)"
vector 48  Net802154MultiGateway.host[3].wrappedHost.trafficgen  sentPk:vector(packetBytes)  ETV
attr interpolationmode  none
attr source  sentPk
attr title  "packets sent, vector(packetBytes)"
vector 52  Net802154MultiGateway.host[3].wrappedHost.trafficgen  PRR:vector  ETV
attr interpolationmode  none
attr source  count(sinkRcvdPk)/count(sentPk)
attr title  "PRR, vector"
vector 50  Net802154MultiGateway.host[3].wrappedHost.trafficgen  sinkRcvdPk:vector(packetBytes)  ETV
attr interpolationmode  none
attr source  sinkRcvdPk
attr title  "own packets received by sink, vector(packetBytes)"
vector 132  Net802154MultiGateway.host[9].wrappedHost.trafficgen  sentPk:vector(packetBytes)  ETV
attr interpolationmode  none
attr source  sentPk
attr title  "packets sent, vector(packetBytes)"
vector 136  Net802154MultiGateway.host[9].wrappedHost.trafficgen  PRR:vector  ETV
attr interpolationmode  none
attr source  count(sinkRcvdPk)/count(sentPk)
attr title  "PRR, vector"
vector 134  Net802154MultiGateway.host[9].wrappedHost.trafficgen  sinkRcvdPk:vector(packetBytes)  ETV
attr interpolationmode  none
attr source  sinkRcvdPk
attr title  "own packets received by sink, vector(packetBytes)"
vector 664  Net802154MultiGateway.host[47].wrappedHost.trafficgen  sentPk:vector(packetBytes)  ETV
attr interpolationmode  none
attr source  sentPk
attr title  "packets sent, vector(packetBytes)"
vector 668  Net802154MultiGateway.host[47].wrappedHost.trafficgen  PRR:vector  ETV
attr interpolationmode  none
attr source  count(sinkRcvdPk)/count(sentPk)
attr title  "PRR, vector"
vector 666  Net802154MultiGateway.host[47].wrappedHost.trafficgen  sinkRcvdPk:vector(packetBytes)  ETV
attr interpolationmode  none
attr source  sinkRcvdPk
attr title  "own packets received by sink, vector(packetBytes)"
vector 90  Net802154MultiGateway.host[6].wrappedHost.trafficgen  sentPk:vector(packetBytes)  ETV
attr interpolationmode  none
attr source  sentPk
attr title  "packets sent, vector(packetBytes)"
vector 94  Net802154MultiGateway.host[6].wrappedHost.trafficgen  PRR:vector  ETV
attr interpolationmode  none
attr source  count(sinkRcvdPk)/count(sentPk)
attr title  "PRR, vector"
vector 92  Net802154MultiGateway.host[6].wrappedHost.trafficgen  sinkRcvdPk:vector(packetBytes)  ETV
attr interpolationmode  none
attr source  sinkRcvdPk
attr title  "own packets received by sink, vector(packetBytes)"
vector 370  Net802154MultiGateway.host[26].wrappedHost.trafficgen  sentPk:vector(packetBytes)  ETV
attr interpolationmode  none
attr source  sentPk
attr title  "packets sent, vector(packetBytes)"
vector 374  Net802154MultiGateway.host[26].wrappedHost.trafficgen  PRR:vector  ETV
attr interpolationmode  none
attr source  count(sinkRcvdPk)/count(sentPk)
attr title  "PRR, vector"
vector 372  Net802154MultiGateway.host[26].wrappedHost.trafficgen  sinkRcvdPk:vector(packetBytes)  ETV
attr interpolationmode  none
attr source  sinkRcvdPk
attr title  "own packets received by sink, vector(packetBytes)"
vector 580  Net802154MultiGateway.host[41].wrappedHost.trafficgen  sentPk:vector(packetBytes)  ETV
attr interpolationmode  none
attr source  sentPk
attr title  "packets sent, vector(packetBytes)"
vector 584  Net802154MultiGateway.host[41].wrappedHost.trafficgen  PRR:vector  ETV
attr interpolationmode  none
attr source  count(sinkRcvdPk)/count(sentPk)
attr title  "PRR, vector"
vector 582  Net802154MultiGateway.host[41].wrappedHost.trafficgen  sinkRcvdPk:vector(packetBytes)  ETV
attr interpolationmode  none
attr source  sinkRcvdPk
attr title  "own packets received by sink, vector(packetBytes)"
5	966856	161.047143792488	76
5	967092	161.076585151854	76
5	967320	161.244077541915	76
5	967680	161.262080924922	76
5	967833	161.269297959703	76
5	968076	161.282368178362	76
5	968199	161.292482591854	76
5	968433	161.327963664979	76
5	968560	161.346173244383	76
5	968745	161.374061610368	76
5	968928	161.387212945016	76
5	969102	161.402428598653	76
5	969286	161.417659754843	76
5	969585	161.56584985389	76
5	969825	161.584438165112	76
5	970025	161.600967906485	76
5	970354	161.680335187786	76
5	970572	161.703785137577	76
5	970891	161.729683020062	76
5	971013	161.737445939122	76
5	971220	161.757856703544	76
5	971282	161.762721370672	76
5	971515	161.782746869417	76
5	971806	161.809399618285	76
5	971879	161.815012492104	76
5	972172	161.94643366726	76
5	972402	161.976472680318	76
5	972529	162.012681620942	76
5	972718	162.053029452028	76
5	973036	162.206531635688	76
5	973163	162.228968253825	76
5	973457	162.263707729987	76
5	973632	162.279651401015	76
5	973871	162.307915460245	76
5	973961	162.325497312125	76
5	974262	162.385686929301	76
5	974460	162.402945928399	76
5	974647	162.479630587637	76
5	974830	162.517947281389	76
5	975069	162.684714479768	76
5	975302	162.731111291651	76
5	975448	162.752453904244	76
5	975670	162.766248029831	76
5	975853	162.789656488505	76
5	976053	162.842666873926	76
5	976192	162.850879807661	76
5	976443	162.880930323676	76
5	976795	162.901902076401	76
5	977014	162.912849341905	76
5	977487	162.936960829343	76
5	977554	162.944941713318	76
5	977678	162.958043826629	76
5	977861	162.986435242311	76
5	978249	163.085847977484	76
5	978365	163.09282286785	76
5	978584	163.105669208553	76
5	978723	163.118130291193	76
5	978929	163.16659475708	76
5	979161	163.204965098849	76
5	979399	163.238939680846	76
5	979574	163.251345995574	76
5	979704	163.304820956386	76
5	979939	163.325903798383	76
5	980503	163.44012975899	76
5	980653	163.450499838442	76
5	980784	163.462566063783	76
5	980954	163.477136091204	76
5	981284	163.508246820342	76
5	981496	163.521845252374	76
5	981778	163.541602996721	76
5	981917	163.553392659779	76
5	982197	163.620731829771	76
5	982383	163.652674967065	76
5	982855	163.727740620291	76
5	982980	163.738524072144	76
5	983112	163.759897438955	76
5	983339	163.781877535577	76
5	983670	163.987905521464	76
5	983793	163.993993880723	76
5	983912	164.003539620775	76
5	984293	164.021344726662	76
5	984527	164.034142043124	76
5	984707	164.041358036019	76
5	984963	164.053929540467	76
5	985056	164.063802728715	76
5	985318	164.087455581773	76
5	985477	164.12056911454	76
5	985689	164.137190023876	76
5	985875	164.154722280376	76
5	986046	164.16944341599	76
5	986276	164.23490895754	76
5	986573	164.267559611871	76
5	986829	164.283430877453	76
5	987155	164.298934503224	76
5	987229	164.305191209453	76
5	987746	164.33415490157	76
5	987862	164.339339568698	76
5	987991	164.347499404439	76
5	988173	164.35654289112	76
5	988396	164.372951027895	76
5	988596	164.390959769843	76
5	988660	164.446505735935	76
5	988774	164.49296081864	76
5	988958	164.519711248717	76
5	989143	164.538424258223	76
5	989271	164.573672947881	76
5	989457	164.595925291796	76
5	989696	164.644021196255	76
5	989922	164.662064568308	76
5	990059	164.671461754326	76
5	990464	164.737259790835	76
5	990521	164.742551783495	76
5	990706	164.761759521503	76
5	991095	164.831093096672	76
5	991452	164.932489981616	76
5	991937	164.954524201701	76
5	992169	164.961130065815	76
5	992400	164.969877830988	76
5	992560	164.975954484308	76
5	992675	164.982574972546	76
5	992870	164.995445897229	76
5	993115	165.013087093993	76
5	993446	165.035284734393	76
5	993506	165.040911341636	76
5	993633	165.098583542339	76
5	993814	165.115099018225	76
5	993943	165.136695138937	76
5	994289	165.210562749001	76
5	994465	165.226096664233	76
5	994603	165.239836786783	76
5	994833	165.269518499595	76
5	995066	165.38875086082	76
5	995373	165.426529991602	76
5	995482	165.435789892134	76
5	995610	165.468035332249	76
5	995843	165.507788094333	76
5	996085	165.554410945653	76
5	996315	165.584110593472	76
5	996554	165.632249087078	76
5	996681	165.670661968923	76
5	996917	165.712203066118	76
5	997044	165.729021977587	76
5	997326	165.809703938114	76
5	997476	165.825430869942	76
5	997540	165.879932406558	76
5	997775	165.910493315148	76
5	997904	165.921874267369	76
5	997963	165.928713864527	76
5	998198	165.976822850263	76
5	998388	166.009939806437	76
5	998618	166.052126769237	76
5	998803	166.120562731099	76
5	999043	166.191417770885	76
5	999234	166.230276261545	76
5	999470	166.251603015112	76
5	999830	166.286017386978	76
5	999972	166.296803465166	76
5	1000211	166.353924860377	76
5	1000444	166.389802105694	76
5	1000571	166.432770343901	76
5	1000698	166.451120174526	76
5	1000931	166.519086062879	76
5	1001170	166.603091910859	76
5	1001456	166.663759731747	76
5	1001635	166.67846286622	76
5	1001822	166.716936064272	76
5	1002056	166.741179146734	76
5	1002184	166.768405595689	76
5	1002465	166.797431383743	76
5	1002649	166.814851328358	76
5	1002779	166.853726287013	76
5	1003012	166.883170147377	76
5	1003195	166.916904112135	76
5	1003376	166.934379268378	76
5	1003516	166.94963425296	76
5	1003580	166.992458860442	76
5	1003761	167.050918835697	76
5	1003947	167.091560195625	76
5	1004133	167.120058598546	76
5	1004328	167.156550084242	76
5	1004467	167.168935392621	76
5	1004706	167.199414452277	76
5	1005005	167.22578071021	76
5	1005142	167.23771246482	76
5	1005594	167.273294033652	76
5	1005890	167.287842411707	76
5	1005972	167.293531601616	76
5	1006096	167.299676268744	76
5	1006209	167.312889595863	76
5	1006266	167.318074262991	76
5	1006449	167.353821122996	76
5	1006681	167.382818498871	76
5	1006868	167.470436025372	76
5	1007117	167.513563916145	76
5	1007383	167.530644994106	76
5	1007520	167.541397661234	76
5	1007629	167.54781915049	76
5	1007817	167.583937903907	76
5	1008109	167.608303199245	76
5	1008295	167.623403236716	76
5	1008482	167.693455860321	76
5	1008799	167.823155392668	76
5	1008877	167.829454253643	76
5	1009077	167.883882555947	76
5	1009246	167.895791850822	76
5	1009476	167.94828370804	76
5	1009662	167.985541293348	76
5	1009957	168.005162136907	76
5	1010082	168.015261247313	76
5	1010316	168.072925003605	76
5	1010443	168.086465633676	76
5	1010696	168.129992947207	76
5	1010920	168.149073781619	76
5	1010994	168.173599198307	76
5	1011214	168.193626946512	76
5	1011402	168.215646177698	76
5	1011467	168.288154318595	76
5	1011821	168.322698188374	76
5	1011963	168.334294117072	76
5	1012090	168.366058502518	76
5	1012154	168.377693614328	76
5	1012457	168.411611376604	76
5	1012656	168.433232135384	76
5	1012890	168.465908495757	76
5	1013131	168.541102106412	76
5	1013195	168.555867609751	76
5	1013320	168.582693786	76
5	1013696	168.625495189173	76
5	1013861	168.630992253698	76
5	1014048	168.64715351996	76
5	1014244	168.658145766042	76
5	1014301	168.662798534136	76
5	1014548	168.695003524184	76
5	1014773	168.713489348744	76
5	1015016	168.801399971785	76
5	1015421	168.970345051404	76
5	1015495	168.97847291855	76
5	1015559	169.04886541952	76
5	1015873	169.068915020204	76
5	1016045	169.077616256521	76
5	1016315	169.087211260606	76
5	1016460	169.100989509616	76
5	1016777	169.142059265609	76
5	1016838	169.146623828438	76
5	1016964	169.160705124596	76
5	1017028	169.1954638954	76
5	1017333	169.265567662266	76
5	1017457	169.273402185034	76
5	1017660	169.291619311454	76
5	1017718	169.296163978582	76
5	1017949	169.328435212951	76
5	1018249	169.354055077302	76
5	1018310	169.359342306758	76
5	1018546	169.394730579316	76
5	1018745	169.406650243017	76
5	1018863	169.416055430896	76
5	1018935	169.422623516418	76
5	1019173	169.45728895497	76
5	1019408	169.489572767469	76
5	1019671	169.600905675933	76
5	1019786	169.606404284231	76
5	1019848	169.616090902128	76
5	1020086	169.660525821247	76
5	1020493	169.756338669209	76
5	1020552	169.761677517028	76
5	1020736	169.876479832216	76
5	1021046	169.907816781575	76
5	1021150	169.912995210987	76
5	1021344	169.932041479415	76
5	1021543	169.94409993895	76
5	1021652	169.949981620069	76
5	1021902	170.00546896268	76
5	1022135	170.057721961136	76
5	1022371	170.117906855731	76
5	1022604	170.167186074812	76
5	1022824	170.20146603206	76
5	1023398	170.31283934804	76
5	1023524	170.320763231627	76
5	1023704	170.33112346517	76
5	1023844	170.345690355228	76
5	1024018	170.363302461958	76
5	1024114	170.38693717543	76
5	1024359	170.424523705962	76
5	1024761	170.440313468612	76
5	1024873	170.445723194941	76
5	1025107	170.464532668966	76
5	1025477	170.530920341717	76
5	1025705	170.594826222255	76
5	1025974	170.669573203161	76
5	1026258	170.6845255838	76
5	1026318	170.690355974201	76
5	1026548	170.744468585559	76
5	1026763	170.779599572593	76
5	1026901	170.793202266528	76
5	1027280	170.857268735764	76
5	1027541	170.872210168481	76
5	1027726	170.889918318346	76
5	1027962	170.91314337314	76
5	1028145	170.94561119992	76
5	1028209	170.963386496847	76
5	1028271	170.988036520539	76
5	1028479	171.003161992197	76
5	1028692	171.060986981669	76
5	1028846	171.121095625921	76
5	1029138	171.163859650048	76
5	1029350	171.183483052328	76
5	1029578	171.200762560772	76
5	1029844	171.23179584182	76
5	1030315	171.257270702953	76
5	1030397	171.267378155719	76
5	1030569	171.279360627532	76
5	1030811	171.308711236433	76
5	1031122	171.327373984682	76
5	1031265	171.337047237047	76
5	1031457	171.383536684954	76
5	1031701	171.410666374413	76
5	1031887	171.422901456286	76
5	1032075	171.436488267458	76
5	1032308	171.467048866126	76
5	1032435	171.522200668614	76
5	1032644	171.784792696831	76
5	1032997	171.877566585446	76
5	1033137	171.8904091571	76
5	1033490	171.996385972237	76
5	1033617	172.023703367445	76
5	1033823	172.10751068963	76
5	1034056	172.129172974799	76
5	1034359	172.200655796272	76
5	1034697	172.216444655827	76
5	1034771	172.225764764568	76
5	1035175	172.252695578591	76
5	1035234	172.257259174832	76
5	1035472	172.293956623514	76
5	1035822	172.335001453913	76
5	1036054	172.350737652009	76
5	1036236	172.37414375111	76
5	1036488	172.410333649348	76
5	1036566	172.417807067835	76
5	1036625	172.422891901647	76
5	1036885	172.465867772639	76
5	1036959	172.472012439767	76
5	1037118	172.487487504679	76
5	1037390	172.525782790369	76
5	1037565	172.539962973417	76
5	1037845	172.575107500616	76
5	1038079	172.591227784555	76
5	1038441	172.609390939871	76
5	1038515	172.617761069155	76
5	1038636	172.651134887854	76
5	1038934	172.689922234115	76
5	1039074	172.701865524549	76
5	1039223	172.714239911289	76
5	1039362	172.726986191677	76
5	1039604	172.818272447436	76
5	1039843	172.852201802876	76
5	1040087	172.936523584827	76
5	1040146	172.942668251955	76
5	1040338	172.978091697302	76
5	1040575	173.001297013018	76
5	1040697	173.010490166452	76
5	1040881	173.049356634553	76
5	1041304	173.152419435198	76
5	1041362	173.157671515202	76
5	1041423	173.16381618233	76
5	1041737	173.246900428763	76
5	1041919	173.269934165071	76
5	1042062	173.299433742779	76
5	1042435	173.31948010668	76
5	1042510	173.328960299736	76
5	1042696	173.355870938605	76
5	1042917	173.418437785255	76
5	1043180	173.47877488113	76
5	1043365	173.608316239356	76
5	1043554	173.625246101041	76
5	1043792	173.63807230143	76
5	1044061	173.65001359387	76
5	1044197	173.655403321211	76
5	1044371	173.66750985996	76
5	1044586	173.735408676444	76
5	1044650	173.751039846704	76
5	1044844	173.799567659642	76
5	1044903	173.806959235262	76
5	1045272	173.877741404431	76
5	1045465	173.888591339216	76
5	1045526	173.893120445418	76
5	1045588	173.904436814198	76
5	1045648	173.913861717312	76
5	1045878	173.956151494287	76
5	1046065	173.975776483677	76
5	1046252	173.992905872114	76
5	1046364	174.012171541686	76
5	1046622	174.045186173434	76
5	1046695	174.050386767122	76
5	1046879	174.065619418186	76
5	1047090	174.09037954914	76
5	1047472	174.151604248526	76
5	1047557	174.156211185464	76
5	1047677	174.16306665831	76
5	1047912	174.173595366756	76
5	1047984	174.182564467903	76
5	1048220	174.208609615591	76
5	1048466	174.286094220889	76
5	1048695	174.303686127763	76
5	1048759	174.319022605068	76
5	1048987	174.386108530293	76
5	1049214	174.42529959431	76
5	1049336	174.433967745804	76
5	1049488	174.44758786111	76
5	1049747	174.462525751088	76
5	1049973	174.477854225585	76
5	1050113	174.489815277875	76
5	1050418	174.534425991718	76
5	1050558	174.549261668375	76
5	1050893	174.676509833484	76
5	1051077	174.691636708386	76
5	1051411	174.711516549674	76
5	1051680	174.723299324539	76
5	1051754	174.732011515934	76
5	1052012	174.794105139736	76
5	1052186	174.801673233843	76
5	1052354	174.814641461031	76
5	1052604	174.84401674646	76
5	1053017	174.863715916753	76
5	1053113	174.870785246868	76
5	1053266	174.885699923336	76
5	1053330	174.900247892902	76
5	1053585	174.951030464277	76
5	1053912	174.981067492378	76
5	1054086	174.99283192868	76
5	1054267	175.007704169747	76
5	1054502	175.034049932154	76
5	1054630	175.105010554668	76
5	1054933	175.159707766749	76
5	1055039	175.166210121039	76
5	1055291	175.20260644641	76
5	1055558	175.220850045315	76
5	1055757	175.231018567899	76
5	1055931	175.244082700371	76
5	1056058	175.290824053782	76
5	1056185	175.316480507157	76
5	1056450	175.339067081666	76
5	1056684	175.355970349185	76
5	1056973	175.371317865127	76
5	1057047	175.380072714694	76
5	1057277	175.416294903814	76
5	1057407	175.450197673115	76
5	1057534	175.51612973247	76
5	1057720	175.598654627533	76
5	1058023	175.666645311686	76
5	1058164	175.681376479893	76
5	1058350	175.723781925158	76
5	1058583	175.806961354448	76
5	1058837	175.861834044406	76
5	1058978	175.876161317269	76
5	1059042	175.914316454132	76
5	1059102	175.923509912708	76
5	1059344	175.985383544254	76
5	1059605	176.027913192927	76
5	1059757	176.038516257815	76
5	1059986	176.060929327729	76
5	1060221	176.178594967336	76
5	1060286	176.196258853558	76
5	1060698	176.299246243878	76
5	1060774	176.30873009878	76
5	1060838	176.36611499105	76
5	1060963	176.384113267317	76
5	1061146	176.397113266018	76
5	1061204	176.401794492179	76
5	1061391	176.423127484142	76
5	1061569	176.487173731453	76
5	1061752	176.503684278235	76
5	1062221	176.53594434852	76
5	1062311	176.542317757258	76
5	1062429	176.549102424386	76
5	1062582	176.556628912279	76
5	1062767	176.572497636785	76
5	1063018	176.630700724923	76
5	1063232	176.646742963353	76
5	1063573	176.671194836756	76
5	1063658	176.676379503884	76
5	1063859	176.692920320934	76
5	1064040	176.705860418012	76
5	1064319	176.724056292812	76
5	1064619	176.735863637504	76
5	1064712	176.744147303304	76
5	1064837	176.759267766572	76
5	1064964	176.79099674215	76
5	1065149	176.912855432701	76
5	1065277	176.936383215625	76
5	1065404	177.044197940937	76
5	1065590	177.127071393771	76
5	1065880	177.146955362514	76
5	1066058	177.161196310948	76
5	1066245	177.189272083574	76
5	1066475	177.211584052067	76
5	1066570	177.225864778758	76
5	1066900	177.245229546573	76
5	1066976	177.254569264575	76
5	1067165	177.348789076656	76
5	1067399	177.394860393996	76
5	1067637	177.420274048994	76
5	1067946	177.475726528299	76
5	1068081	177.484628073493	76
5	1068269	177.499319492902	76
5	1068440	177.511814552144	76
5	1068694	177.550147723965	76
5	1068804	177.555418414335	76
5	1069170	177.657305659404	76
5	1069245	177.662542400826	76
5	1069448	177.696001881577	76
5	1069505	177.700546548705	76
5	1069882	177.758518745508	76
5	1070316	177.770547616806	76
5	1070686	177.783826501275	76
5	1070816	177.789198348832	76
5	1070938	177.795552824518	76
5	1070996	177.800193060687	76
5	1071244	177.823918184608	76
5	1071468	177.841850655537	76
5	1071802	177.859827808237	76
5	1072241	177.875187617955	76
5	1072405	177.880653243364	76
5	1072462	177.885089107637	76
5	1072667	177.899165627268	76
5	1072780	177.905441804291	76
5	1073151	177.922904565088	76
5	1073214	177.93297348636	76
5	1073399	177.984996604837	76
5	1073600	178.017800035688	76
5	1073847	178.031155212624	76
5	1073925	178.039455431445	76
5	1074044	178.049983668339	76
5	1074286	178.072472143974	76
5	1074350	178.088469579971	76
5	1074553	178.107595958948	76
5	1074628	178.113277314323	76
5	1074860	178.149788929278	76
5	1075043	178.256091023213	76
5	1075354	178.28758633714	76
5	1075429	178.297085197206	76
5	1075670	178.347182133465	76
5	1075894	178.363211302246	76
5	1076148	178.455188395528	76
5	1076318	178.467153771817	76
5	1076662	178.520159962263	76
5	1076803	178.535077069366	76
5	1077019	178.637431730505	76
5	1077167	178.648140669279	76
5	1077309	178.707887464305	76
5	1077551	178.720588665375	76
5	1077720	178.734703628315	76
5	1077944	178.75407223077	76
5	1078236	178.840126143021	76
5	1078406	178.850985914322	76
5	1078642	178.888549977393	76
5	1078912	178.962141356688	76
5	1079068	178.972181522479	76
5	1079187	178.982302690944	76
5	1079424	179.03088095057	76
5	1079551	179.067934668172	76
5	1080081	179.126083850052	76
5	1080195	179.133550507497	76
5	1080313	179.144043333494	76
5	1080549	179.1594195793	76
5	1080610	179.16426619743	76
5	1080862	179.266090420207	76
5	1081044	179.281952906408	76
5	1081230	179.343540427294	76
5	1081583	179.438720218703	76
5	1081646	179.444672904194	76
5	1081886	179.466928379016	76
5	1082136	179.493061919954	76
5	1082213	179.499754543512	76
5	1082337	179.510432089056	76
5	1082401	179.534830463943	76
5	1082552	179.578359103363	76
5	1082853	179.594553184001	76
5	1082990	179.604392474685	76
5	1083195	179.623211110694	76
5	1083465	179.703891073378	76
5	1083709	179.721004450819	76
5	1083908	179.739792496141	76
5	1084035	179.767937911115	76
5	1084411	179.803121746921	76
5	1084702	179.813309999872	76
5	1084788	179.817880806535	76
5	1084878	179.823840358159	76
5	1084988	179.831441946734	76
5	1085231	179.863585194554	76
5	1085431	179.888309049601	76
5	1085668	179.907848252229	76
5	1085770	179.916148870612	76
5	1086089	179.93777376041	76
5	1086436	179.957505227965	76
5	1086576	179.969495129415	76
5	1086874	180.067482949184	76
5	1087346	180.114197034571	76
5	1087461	180.121029686279	76
5	1087577	180.127088458165	76
5	1087651	180.132117861353	76
5	1087884	180.206403417317	76
5	1088166	180.262023299907	76
5	1088399	180.310727910423	76
5	1088618	180.41717673847	76
5	1088747	180.435460194494	76
5	1088983	180.483413058306	76
5	1089169	180.530523767218	76
5	1089366	180.54243311954	76
5	1089439	180.550244163259	76
5	1089765	180.598928151365	76
5	1090022	180.619886031892	76
5	1090191	180.635420983599	76
5	1090264	180.643621891121	76
5	1090656	180.663013023041	76
5	1090716	180.667969353132	76
5	1091009	180.709608923537	76
5	1091179	180.722161623518	76
5	1091353	180.80599601529	76
5	1091480	180.903801587529	76
5	1091710	180.934276601171	76
5	1091779	180.946580844716	76
5	1091836	180.953936093704	76
5	1092077	180.987538430465	76
5	1092140	181.000095818962	76
5	1092411	181.031730631573	76
5	1092552	181.043008229438	76
5	1092738	181.061987167836	76
5	1092978	181.111795101388	76
5	1093226	181.125284183138	76
5	1093404	181.142984282646	76
5	1094028	181.300711442085	76
5	1094150	181.306439108895	76
5	1094444	181.328934122776	76
5	1094711	181.389883499167	76
5	1095119	181.414461177289	76
5	1095194	181.422394298857	76
5	1095352	181.483186277056	76
5	1095538	181.51373087367	76
5	1095795	181.551619443654	76
5	1096067	181.569786736307	76
5	1096175	181.575009852702	76
5	1096450	181.594407725732	76
5	1096559	181.602547772447	76
5	1096715	181.614508654582	76
5	1096997	181.631703790734	76
5	1097291	181.645677750958	76
5	1097353	181.653100327199	76
5	1097495	181.681824356151	76
5	1097634	181.696761861676	76
5	1097891	181.715508805156	76
5	1098014	181.723534080613	76
5	1098198	181.740589618074	76
5	1098325	181.764172071425	76
5	1098512	181.795218707054	76
5	1098637	181.805814117834	76
5	1098825	181.833968918603	76
5	1099055	181.861840469151	76
5	1099241	181.914729542557	76
5	1099369	181.96400281861	76
5	1099433	181.984909993173	76
5	1099667	182.041198252309	76
5	1099951	182.056110255441	76
5	1100009	182.062319395182	76
5	1100074	182.080642946241	76
5	1100390	182.166447425653	76
5	1100736	182.184402149995	76
5	1100816	182.192049175466	76
5	1100950	182.209927283801	76
5	1101178	182.231988967379	76
5	1101268	182.258292671776	76
5	1101451	182.354687967132	76
5	1101582	182.366909439258	76
5	1101754	182.427726229377	76
5	1102194	182.725592950069	76
5	1102460	182.756288715677	76
5	1102647	182.790918276048	76
5	1102923	182.829039938023	76
5	1103098	182.844874696889	76
5	1103406	182.971548842223	76
5	1103572	182.982253669005	76
5	1103877	183.076531524237	76
5	1104012	183.097825383784	76
5	1104117	183.105239037621	76
5	1104301	183.172755649159	76
5	1104722	183.277404770991	76
5	1104780	183.282342978412	76
5	1105058	183.320263232898	76
5	1105435	183.393119085085	76
5	1105525	183.402975377168	76
5	1105653	183.423405835838	76
5	1105913	183.466760867022	76
5	1106372	183.487214354995	76
5	1106620	183.496350309557	76
5	1106850	183.50555247872	76
5	1107080	183.514290922862	76
5	1107287	183.521720262302	76
5	1107599	183.538531402796	76
5	1107673	183.545418897958	76
5	1107929	183.61030621182	76
5	1108212	183.721653026041	76
5	1108398	183.755035064559	76
5	1108567	183.76734973337	76
5	1109055	183.82911379537	76
5	1109157	183.834853216685	76
5	1109274	183.844670178837	76
5	1109479	183.856082805663	76
5	1109721	183.874496670155	76
5	1109922	183.895202638054	76
5	1110222	183.958316196491	76
5	1110350	184.011276579673	76
5	1110534	184.033536833139	76
5	1110895	184.080210099972	76
5	1111047	184.092584749215	76
5	1111276	184.107309173437	76
5	1111508	184.133612726545	76
5	1111572	184.196494626202	76
5	1111909	184.218292531795	76
5	1112035	184.231613035631	76
5	1112301	184.309358804705	76
5	1112470	184.334002325438	76
5	1112668	184.354992518305	76
5	1112886	184.372981973451	76
5	1113122	184.417012099404	76
5	1113369	184.450506431447	76
5	1113437	184.455033235218	76
5	1113693	184.476189715493	76
5	1113879	184.518522913111	76
5	1114065	184.609799783178	76
5	1114303	184.637444928005	76
5	1114715	184.664729614447	76
5	1114865	184.679452944214	76
5	1115215	184.694378979131	76
5	1115292	184.703653347371	76
5	1115560	184.758025961429	76
5	1115745	184.774414529383	76
5	1116141	184.82663409142	76
5	1116235	184.83530970485	76
5	1116526	184.864846598083	76
5	1116655	184.961010768044	76
5	1116851	185.009329566311	76
5	1116990	185.022779869915	76
5	1117179	185.047497513058	76
5	1117514	185.088047104222	76
5	1117646	185.095986299982	76
5	1117846	185.116071355919	76
5	1118035	185.219296729703	76
5	1118278	185.34276114569	76
5	1118497	185.363038804371	76
5	1118683	185.400271120611	76
5	1118810	185.41722994205	76
5	1119067	185.461571370976	76
5	1119208	185.473791683681	76
5	1119439	185.509032314049	76
5	1119669	185.576102990632	76
5	1119913	185.612730707952	76
5	1120143	185.65096860309	76
5	1120329	185.699141234993	76
5	1120584	185.717927023028	76
5	1120837	185.732024289835	76
5	1120899	185.737146776034	76
5	1120976	185.781902343741	76
5	1121282	185.799281581419	76
5	1121423	185.810951701194	76
5	1121795	185.920213907619	76
5	1121896	185.92651512431	76
5	1122119	185.938625339115	76
5	1122253	185.943705132174	76
5	1122408	185.953598172141	76
5	1122638	185.972945218659	76
5	1122813	186.026943160072	76
5	1123023	186.044007651989	76
5	1123174	186.059965374875	76
5	1123356	186.07616620103	76
5	1123590	186.099901111165	76
5	1123723	186.113456309556	76
5	1123873	186.128128976684	76
5	1124000	186.141857792531	76
5	1124188	186.157229914574	76
5	1124358	186.168654164683	76
5	1124594	186.23291934863	76
5	1124759	186.274190717008	76
5	1124857	186.278993382056	76
5	1125233	186.298486797235	76
5	1125372	186.311500246281	76
5	1125601	186.364907448069	76
5	1126009	186.393311416614	76
5	1126095	186.403603512762	76
5	1126293	186.449586516047	76
5	1126353	186.457603626955	76
5	1126539	186.504845184526	76
5	1126859	186.658895198278	76
5	1127216	186.671452272159	76
5	1127351	186.676381847503	76
5	1127482	186.683009273406	76
5	1127645	186.696691641841	76
5	1127864	186.714818309637	76
5	1128066	186.785416393015	76
5	1128141	186.792898024078	76
5	1128330	186.827319206812	76
5	1128560	186.849129700325	76
5	1128882	186.870128256255	76
5	1128970	186.875494822974	76
5	1129099	186.889398841256	76
5	1129343	186.938076755244	76
5	1129573	186.959068901262	76
5	1129812	186.992309883247	76
5	1130271	187.01423798403	76
5	1130836	187.038328954625	76
5	1130978	187.050445392804	76
5	1131100	187.060128861478	76
5	1131338	187.105826768844	76
5	1131579	187.130478902896	76
5	1131707	187.190303184526	76
5	1131837	187.396133079624	76
5	1131964	187.41954876061	76
5	1132091	187.46311125745	76
5	1132155	187.504002141376	76
5	1132516	187.524843167379	76
5	1132591	187.532081712009	76
5	1132842	187.553748780038	76
5	1132901	187.558584393267	76
5	1133142	187.584089539466	76
5	1133409	187.602925189504	76
5	1133517	187.608494711031	76
5	1133775	187.626323936756	76
5	1133961	187.641514838195	76
5	1134196	187.663122997961	76
5	1134261	187.732568244736	76
5	1134448	187.75073996648	76
5	1134745	187.766376100943	76
5	1134831	187.771576630243	76
5	1135192	187.786968706421	76
5	1135398	187.796434915609	76
5	1135531	187.803482719045	76
5	1135593	187.812302685202	76
5	1135883	187.848928460027	76
5	1135971	187.859126028484	76
5	1136260	187.896908572733	76
5	1136395	187.907372968048	76
5	1136526	187.941307025004	76
5	1136583	187.945851692132	76
5	1136649	187.960711847549	76
5	1136883	187.986411231005	76
5	1137184	188.00809254339	76
5	1137300	188.01420858143	76
5	1137374	188.018753248558	76
5	1137515	188.029189659512	76
5	1137752	188.068603005942	76
5	1137814	188.080084558463	76
5	1138047	188.185244694492	76
5	1138185	188.202488920187	76
5	1138417	188.221198062356	76
5	1138567	188.234301975996	76
5	1138751	188.261031190604	76
5	1138892	188.2870499386	76
5	1139032	188.300644970374	76
5	1139314	188.334148470812	76
5	1139496	188.349408130798	76
5	1139560	188.366469493268	76
5	1139812	188.48840706702	76
5	1140218	188.509232383674	76
5	1140364	188.516092316069	76
5	1140443	188.524508298636	76
5	1140502	188.530674340462	76
5	1140688	188.592516526758	76
5	1140849	188.626918131523	76
5	1141049	188.640572385126	76
5	1141115	188.661090030657	76
5	1141177	188.671787388795	76
5	1141361	188.690474901116	76
5	1141605	188.725800975894	76
5	1141745	188.740772629852	76
5	1141948	188.7577039568	76
5	1142023	188.763717663307	76
5	1142268	188.82002835258	76
5	1142409	188.833510006691	76
5	1142705	188.905512364057	76
5	1142966	188.920295348151	76
5	1143043	188.927982583419	76
5	1143277	189.029734945799	76
5	1143404	189.047302384198	76
5	1143637	189.131572293896	76
5	1143820	189.195128895039	76
5	1143972	189.220607313316	76
5	1144198	189.238493436254	76
5	1144327	189.266721169439	76
5	1144749	189.324737592752	76
5	1144904	189.336546725662	76
5	1145028	189.348473815936	76
5	1145293	189.381767438095	76
5	1145633	189.394949798471	76
5	1145721	189.399713189872	76
5	1145838	189.406038300766	76
5	1145958	189.414401482215	76
5	1146187	189.432646862995	76
5	1146541	189.466264467914	76
5	1146615	189.473951801731	76
5	1146849	189.540868655502	76
5	1147087	189.59983536593	76
5	1147273	189.655345478272	76
5	1147462	189.727950426876	76
5	1147523	189.736771961763	76
5	1147706	189.777549054399	76
5	1147833	189.792473439473	76
5	1148019	189.826470281716	76
5	1148146	189.852891241252	76
5	1148385	189.878823641422	76
5	1148868	189.915232523651	76
5	1149013	189.92694577422	76
5	1149070	189.931780619076	76
5	1149281	189.956765898017	76
5	1149540	189.967150724799	76
5	1149648	189.972100753698	76
5	1149788	189.985291466317	76
5	1150231	190.023984998489	76
5	1150475	190.043905097704	76
5	1150644	190.057522443266	76
5	1150708	190.072145053262	76
5	1150781	190.087665956702	76
5	1151055	190.106300257591	76
5	1151290	190.138954354446	76
5	1151417	190.15210108117	76
5	1151603	190.217947744454	76
5	1151841	190.245816856695	76
5	1152100	190.269261057655	76
5	1152438	190.332376612486	76
5	1152680	190.383620822155	76
5	1152953	190.465423420677	76
5	1153178	190.481406109847	76
5	1153366	190.496466946965	76
5	1153505	190.507338646215	76
5	1153676	190.520371780612	76
5	1153739	190.530571675409	76
5	1153868	190.637089616373	76
5	1154217	190.664464613364	76
5	1154406	190.68550326831	76
5	1154530	190.696256095092	76
5	1154787	190.738369473845	76
[...]
850	1860253	312.149868864623	0.98666666666667
850	1870008	314.021078859177	0.97368421052632
850	1870203	314.045432346585	0.98684210526316
850	1879461	315.65356277682	0.97402597402597
850	1879656	315.675996264228	0.98701298701299
850	1884786	316.763268491655	0.97435897435897
850	1884983	316.786661979063	0.98717948717949
850	1915987	321.972934967247	0.9746835443038
850	1916184	321.996328454655	0.9873417721519
850	1917353	322.220385229733	0.975
850	1917550	322.242818717141	0.9875
850	1922775	322.934265957568	0.97530864197531
850	1923116	322.957019444976	0.98765432098765
850	1923463	323.023346607469	0.97560975609756
850	1923708	323.045140094877	0.98780487804878
850	1934631	324.881728240522	0.97590361445783
850	1934986	324.911724471181	0.98795180722892
850	1944424	326.967933128835	0.97619047619048
850	1945028	326.991006616243	0.98809523809524
850	1968709	331.05245850504	0.97647058823529
850	1968967	331.074571992448	0.98823529411765
850	1976390	332.393526014223	0.97674418604651
850	1977156	332.429900788024	0.96551724137931
850	1977268	332.437767501631	0.97701149425287
850	1977568	332.458174275432	0.98850574712644
850	1981344	333.076183459602	0.97727272727273
850	1981539	333.09861694701	0.98863636363636
850	1984331	333.906792649162	0.97752808988764
850	1984583	333.92986613657	0.98876404494382
850	1984751	333.943778428883	0.97777777777778
850	1985128	333.969491916291	0.98888888888889
850	1985956	334.141295830663	0.97802197802198
850	1986154	334.165969318071	0.98901098901099
850	1995117	335.743888148488	0.97826086956522
850	1995685	335.785697635896	0.98913043478261
850	2011033	338.304334810651	0.97849462365591
850	2011228	338.325488298059	0.98924731182796
850	2015059	338.910554474873	0.97872340425532
850	2015609	338.932347962281	0.98936170212766
850	2026159	340.501555351363	0.97894736842105
850	2026525	340.522068838771	0.98947368421053
850	2037554	342.403227331557	0.97916666666667
850	2037925	342.426300818965	0.98958333333333
850	2038035	342.497163430167	0.97938144329897
850	2038345	342.520556917575	0.98969072164948
850	2038896	342.648953903044	0.97959183673469
850	2039221	342.670427390452	0.98979591836735
850	2042375	343.129071680076	0.97979797979798
850	2042715	343.150545167484	0.98989898989899
850	2048091	344.038441803003	0.98
850	2048374	344.068315290411	0.99
860	976979	162.910476256106	76
860	985736	164.145729958778	76
860	987897	164.341166312631	76
860	989498	164.620947739043	76
860	991915	164.953124440017	76
860	995104	165.40409653439	76
860	998001	165.955989393051	76
860	1002336	166.790177871146	76
860	1005178	167.247358758536	76
860	1007853	167.585549742033	76
860	1009762	167.994427790101	76
860	1036274	172.389500192136	76
860	1069543	177.735765288296	76
860	1072499	177.889324029148	76
860	1092202	181.014734772226	76
860	1093695	181.281765651683	76
860	1096608	181.606310333522	76
860	1096874	181.624058869987	76
860	1108015	183.699859568829	76
860	1115362	184.736552504217	76
860	1125648	186.37437005555	76
860	1133982	187.641969540749	76
860	1140792	188.621338927914	76
860	1163918	192.245110123308	76
860	1168289	192.99126655743	76
860	1182441	195.001027579663	76
860	1194080	197.412391005822	76
860	1197111	197.93512365579	76
860	1200265	198.372743481698	76
860	1205492	199.427771844388	76
860	1210466	200.088483240921	76
860	1210699	200.113872477957	76
860	1218446	201.42451790372	76
860	1226165	202.322083155073	76
860	1234897	204.083359950962	76
860	1280682	211.924167185281	76
860	1288117	213.221326759133	76
860	1290478	213.595734433048	76
860	1319763	218.355084823771	76
860	1339327	221.912146647571	76
860	1353263	224.237150782099	76
860	1384273	229.326745243527	76
860	1390832	230.253954544694	76
860	1403477	232.218289600575	76
860	1404815	232.376699640001	76
860	1426532	236.761097451909	76
860	1438048	239.15941679018	76
860	1440475	239.696971754906	76
860	1454087	241.997542623156	76
860	1469288	244.257235004477	76
860	1480084	245.827014113512	76
860	1500872	249.092921995078	76
860	1505307	249.647212398787	76
860	1525798	253.555739104666	76
860	1541026	256.395875714443	76
860	1542342	256.576590675689	76
860	1594844	265.843349461027	76
860	1624214	272.384427162335	76
860	1643546	275.427193757624	76
860	1652063	277.252757794142	76
860	1657700	278.159730897778	76
860	1663187	279.429467533427	76
860	1666318	280.005837928683	76
860	1666677	280.034846915056	76
860	1673596	281.217780886006	76
860	1677905	282.079390338521	76
860	1681287	282.737597244041	76
860	1705662	286.409123117218	76
860	1708749	287.056729783689	76
860	1725260	290.195775855334	76
860	1739692	292.29227548527	76
860	1776492	298.570550472719	76
860	1783351	299.300959462311	76
860	1824627	305.703331637216	76
860	1830862	306.607128035355	76
860	1854776	311.038999763579	76
860	1858601	311.926733441341	76
860	1864519	312.945523260274	76
860	1878311	315.358552531512	76
860	1890237	317.659263360598	76
860	1900452	319.25107170911	76
860	1911357	320.876454758834	76
860	1940014	326.350325571563	76
860	1965578	330.577405653762	76
860	1986943	334.30911258902	76
860	1990313	334.888897749637	76
860	2003660	337.098314222755	76
860	2006970	337.706761509536	76
860	2055573	345.203840672012	76
860	2055869	345.247945004456	76
860	2070356	347.736531538376	76
860	2103570	352.80227688077	76
860	2109370	353.701308008918	76
860	2125333	356.802622590641	76
860	2140800	359.095819795819	76
860	2145272	359.612220858064	76
860	2145696	359.829939444305	76
860	2158728	361.677390629727	76
860	2170621	364.19982980142	76
860	2173096	364.513409953277	76
862	977554	162.944941713318	76
862	986046	164.16944341599	76
862	988596	164.390959769843	76
862	989696	164.644021196255	76
862	992870	164.995445897229	76
862	995373	165.426529991602	76
862	998198	165.976822850263	76
862	1002649	166.814851328358	76
862	1006209	167.312889595863	76
862	1008109	167.608303199245	76
862	1010082	168.015261247313	76
862	1036488	172.410333649348	76
862	1069882	177.758518745508	76
862	1073214	177.93297348636	76
862	1092552	181.043008229438	76
862	1094150	181.306439108895	76
862	1096997	181.631703790734	76
862	1097353	181.653100327199	76
862	1108212	183.721653026041	76
862	1115560	184.758025961429	76
862	1126095	186.403603512762	76
862	1134196	187.663122997961	76
862	1141049	188.640572385126	76
862	1164130	192.27010358052	76
862	1168839	193.023780014642	76
862	1182750	195.023781036875	76
862	1194663	197.444056463034	76
862	1197702	197.964805113002	76
862	1200463	198.39581693891	76
862	1205703	199.4518053016	76
862	1210664	200.109956698133	76
862	1210951	200.137265935169	76
862	1218919	201.457671360932	76
862	1226394	202.344516612285	76
862	1235180	204.104513408174	76
862	1281227	211.961225309621	76
862	1288315	213.244080216345	76
862	1290690	213.61848789026	76
862	1320010	218.377518280983	76
862	1339786	221.934900104783	76
862	1353673	224.276352964705	76
862	1384475	229.349498700739	76
862	1391220	230.276516001906	76
862	1404002	232.244963057787	76
862	1405095	232.398813097213	76
862	1426730	236.782890909121	76
862	1438246	239.182490247392	76
862	1440810	239.730669212118	76
862	1454284	242.017416080368	76
862	1469563	244.278708461689	76
862	1480434	245.855287570724	76
862	1505566	249.671565855999	76
862	1526271	253.578812561878	76
862	1541224	256.417029171655	76
862	1542539	256.597104132901	76
862	1595165	265.866422918239	76
862	1624412	272.407500619547	76
862	1644006	275.449627214836	76
862	1652336	277.274551251354	76
862	1657896	278.18024435499	76
862	1663397	279.451260990639	76
862	1666640	280.026351385895	76
862	1666877	280.056000372268	76
862	1673798	281.238294343218	76
862	1678103	282.101503795733	76
862	1681485	282.762910701253	76
862	1706197	286.44323657443	76
862	1708947	287.079803240901	76
862	1725804	290.242738646802	76
862	1740380	292.317988942482	76
862	1776722	298.591703929931	76
862	1784257	299.326400919523	76
862	1824973	305.729685094428	76
862	1831256	306.634761492567	76
862	1855332	311.067273220791	76
862	1858859	311.949166898553	76
862	1864863	312.965076717486	76
862	1878812	315.381705988724	76
862	1890637	317.67945681781	76
862	1900798	319.272225166322	76
862	1911554	320.897608216046	76
862	1940212	326.374359028775	76
862	1965905	330.600159110974	76
862	1987281	334.332826046232	76
862	1990581	334.910371206849	76
862	2003930	337.119467679967	76
862	2007168	337.730474966748	76
862	2055831	345.226274129224	76
862	2056067	345.271338461668	76
862	2070670	347.755764995588	76
862	2103890	352.822790337982	76
862	2109725	353.72278146613	76
862	2125530	356.822816047853	76
862	2141108	359.117933253031	76
862	2145483	359.633054315276	76
862	2145897	359.853332901517	76
862	2158928	361.695984086939	76
862	2170818	364.221303258632	76
862	2173423	364.536483410489	76
863	62	1	76
863	247	3.246336603067	76
863	273	3.770451086418	76
863	392	5.375555057935	76
863	470	7.061512608764	76
863	40424	13.375703691595	76
863	52263	15.124185793773	76
863	61280	16.015237107278	76
863	61500	16.02538682052	76
863	65626	16.677661318263	76
863	75772	17.838756709248	76
863	104079	21.304548586464	76
863	138471	26.014603259141	76
863	138579	26.028245116706	76
863	147227	27.596561597186	76
863	152177	28.829721183816	76
863	156612	29.321949927859	76
863	233994	42.586068861944	76
863	239722	43.586045228943	76
863	243377	44.109753847042	76
863	247201	44.725138910943	76
863	256169	46.415473696884	76
863	264552	48.042913771944	76
863	267628	48.607152571602	76
863	267801	48.623253427321	76
863	283905	51.033128836341	76
863	287953	51.559644348468	76
863	288532	51.602136275783	76
863	291762	52.214852911924	76
863	302740	53.847462889374	76
863	315475	55.753701911061	76
863	323748	56.719804117434	76
863	331534	57.781891218914	76
863	342664	59.788928479768	76
863	358939	62.103297642247	76
863	369798	64.119778644391	76
863	371664	64.372074133578	76
863	379956	65.482478043618	76
863	384994	66.430677127804	76
863	396906	68.540305128114	76
863	412114	71.309379658285	76
863	433761	74.783446120622	76
863	434186	74.829871131447	76
863	437042	75.336902756535	76
863	438063	75.491482658844	76
863	452978	77.701012835205	76
863	472613	80.795042821843	76
863	473408	80.853914860273	76
863	480962	82.009053908557	76
863	500996	85.513879015011	76
863	522822	89.24977508596	76
863	542424	91.941378280511	76
863	595012	100.638122875992	76
863	615382	103.827754465463	76
863	617834	104.114607587434	76
863	637831	107.204440705158	76
863	655316	109.530405586876	76
863	656451	109.647620932195	76
863	666698	111.171907736301	76
863	668155	111.372441824941	76
863	669545	111.621483940856	76
863	701743	117.230093687061	76
863	704778	117.492157290255	76
863	705742	117.629907931637	76
863	720886	120.357549782532	76
863	729411	122.131300828443	76
863	735831	123.099137467518	76
863	758029	126.429311798418	76
863	761339	127.040082252951	76
863	791758	132.83270470793	76
863	830596	139.478216174056	76
863	847437	142.074125629923	76
863	853973	142.92453991346	76
863	863855	144.476331534582	76
863	864973	144.719400298143	76
863	872619	146.319766672545	76
863	884405	148.206101221166	76
863	885239	148.457816410912	76
863	890120	149.382753663583	76
863	892073	149.757833507845	76
863	915284	153.166270980125	76
863	929491	155.498568471558	76
863	940583	157.3843527321	76
863	949288	158.496510611481	76
863	2178652	365.271457292362	76
863	2219522	372.460805508782	76
863	2220643	372.608931943029	76
863	2232742	374.402113109313	76
863	2253456	378.047722565044	76
863	2275696	382.504773997719	76
863	2282020	383.501739782299	76
863	2286432	384.009140223266	76
863	2291939	385.03682344779	76
863	2297050	385.981499592999	76
863	2303583	387.222765298575	76
863	2315825	389.059351328235	76
863	2321564	390.170606878672	76
863	2346123	394.173708365407	76
863	2360340	396.226138653405	76
863	2395271	402.524964758019	76
863	2423527	407.093226942977	76
863	2429043	408.006452476084	76
863	2439550	410.055219207615	76
863	2447410	411.488500339787	76
863	2448225	411.620276382108	76
863	2454603	412.817265579956	76
864	976979	162.910476256106	-nan
864	977554	162.944941713318	1
864	985736	164.145729958778	0.5
864	986046	164.16944341599	1
864	987897	164.341166312631	0.66666666666667
864	988596	164.390959769843	1
864	989498	164.620947739043	0.75
864	989696	164.644021196255	1
864	991915	164.953124440017	0.8
864	992870	164.995445897229	1
864	995104	165.40409653439	0.83333333333333
864	995373	165.426529991602	1
864	998001	165.955989393051	0.85714285714286
864	998198	165.976822850263	1
864	1002336	166.790177871146	0.875
864	1002649	166.814851328358	1
864	1005178	167.247358758536	0.88888888888889
864	1006209	167.312889595863	1
864	1007853	167.585549742033	0.9
864	1008109	167.608303199245	1
864	1009762	167.994427790101	0.90909090909091
864	1010082	168.015261247313	1
864	1036274	172.389500192136	0.91666666666667
864	1036488	172.410333649348	1
864	1069543	177.735765288296	0.92307692307692
864	1069882	177.758518745508	1
864	1072499	177.889324029148	0.92857142857143
864	1073214	177.93297348636	1
864	1092202	181.014734772226	0.93333333333333
864	1092552	181.043008229438	1
864	1093695	181.281765651683	0.9375
864	1094150	181.306439108895	1
864	1096608	181.606310333522	0.94117647058824
864	1096874	181.624058869987	0.88888888888889
864	1096997	181.631703790734	0.94444444444444
864	1097353	181.653100327199	1
864	1108015	183.699859568829	0.94736842105263
864	1108212	183.721653026041	1
864	1115362	184.736552504217	0.95
864	1115560	184.758025961429	1
864	1125648	186.37437005555	0.95238095238095
864	1126095	186.403603512762	1
864	1133982	187.641969540749	0.95454545454545
864	1134196	187.663122997961	1
864	1140792	188.621338927914	0.95652173913043
864	1141049	188.640572385126	1
864	1163918	192.245110123308	0.95833333333333
864	1164130	192.27010358052	1
864	1168289	192.99126655743	0.96
864	1168839	193.023780014642	1
864	1182441	195.001027579663	0.96153846153846
864	1182750	195.023781036875	1
864	1194080	197.412391005822	0.96296296296296
864	1194663	197.444056463034	1
864	1197111	197.93512365579	0.96428571428571
864	1197702	197.964805113002	1
864	1200265	198.372743481698	0.96551724137931
864	1200463	198.39581693891	1
864	1205492	199.427771844388	0.96666666666667
864	1205703	199.4518053016	1
864	1210466	200.088483240921	0.96774193548387
864	1210664	200.109956698133	1
864	1210699	200.113872477957	0.96875
864	1210951	200.137265935169	1
864	1218446	201.42451790372	0.96969696969697
864	1218919	201.457671360932	1
864	1226165	202.322083155073	0.97058823529412
864	1226394	202.344516612285	1
864	1234897	204.083359950962	0.97142857142857
864	1235180	204.104513408174	1
864	1280682	211.924167185281	0.97222222222222
864	1281227	211.961225309621	1
864	1288117	213.221326759133	0.97297297297297
864	1288315	213.244080216345	1
864	1290478	213.595734433048	0.97368421052632
864	1290690	213.61848789026	1
864	1319763	218.355084823771	0.97435897435897
864	1320010	218.377518280983	1
864	1339327	221.912146647571	0.975
864	1339786	221.934900104783	1
864	1353263	224.237150782099	0.97560975609756
864	1353673	224.276352964705	1
864	1384273	229.326745243527	0.97619047619048
864	1384475	229.349498700739	1
864	1390832	230.253954544694	0.97674418604651
864	1391220	230.276516001906	1
864	1403477	232.218289600575	0.97727272727273
864	1404002	232.244963057787	1
864	1404815	232.376699640001	0.97777777777778
864	1405095	232.398813097213	1
864	1426532	236.761097451909	0.97826086956522
864	1426730	236.782890909121	1
864	1438048	239.15941679018	0.97872340425532
864	1438246	239.182490247392	1
864	1440475	239.696971754906	0.97916666666667
864	1440810	239.730669212118	1
864	1454087	241.997542623156	0.97959183673469
864	1454284	242.017416080368	1
864	1469288	244.257235004477	0.98
864	1469563	244.278708461689	1
864	1480084	245.827014113512	0.98039215686275
864	1480434	245.855287570724	1
864	1500872	249.092921995078	0.98076923076923
864	1505307	249.647212398787	0.9622641509434
864	1505566	249.671565855999	0.9811320754717
864	1525798	253.555739104666	0.96296296296296
864	1526271	253.578812561878	0.98148148148148
864	1541026	256.395875714443	0.96363636363636
864	1541224	256.417029171655	0.98181818181818
864	1542342	256.576590675689	0.96428571428571
864	1542539	256.597104132901	0.98214285714286
864	1594844	265.843349461027	0.96491228070175
864	1595165	265.866422918239	0.98245614035088
864	1624214	272.384427162335	0.96551724137931
864	1624412	272.407500619547	0.98275862068966
864	1643546	275.427193757624	0.96610169491525
864	1644006	275.449627214836	0.98305084745763
864	1652063	277.252757794142	0.96666666666667
864	1652336	277.274551251354	0.98333333333333
864	1657700	278.159730897778	0.9672131147541
864	1657896	278.18024435499	0.98360655737705
864	1663187	279.429467533427	0.96774193548387
864	1663397	279.451260990639	0.98387096774194
864	1666318	280.005837928683	0.96825396825397
864	1666640	280.026351385895	0.98412698412698
864	1666677	280.034846915056	0.96875
864	1666877	280.056000372268	0.984375
864	1673596	281.217780886006	0.96923076923077
864	1673798	281.238294343218	0.98461538461538
864	1677905	282.079390338521	0.96969696969697
864	1678103	282.101503795733	0.98484848484848
864	1681287	282.737597244041	0.97014925373134
864	1681485	282.762910701253	0.98507462686567
864	1705662	286.409123117218	0.97058823529412
864	1706197	286.44323657443	0.98529411764706
864	1708749	287.056729783689	0.97101449275362
864	1708947	287.079803240901	0.98550724637681
864	1725260	290.195775855334	0.97142857142857
864	1725804	290.242738646802	0.98571428571429
864	1739692	292.29227548527	0.97183098591549
864	1740380	292.317988942482	0.98591549295775
864	1776492	298.570550472719	0.97222222222222
864	1776722	298.591703929931	0.98611111111111
864	1783351	299.300959462311	0.97260273972603
864	1784257	299.326400919523	0.98630136986301
864	1824627	305.703331637216	0.97297297297297
864	1824973	305.729685094428	0.98648648648649
864	1830862	306.607128035355	0.97333333333333
864	1831256	306.634761492567	0.98666666666667
864	1854776	311.038999763579	0.97368421052632
864	1855332	311.067273220791	0.98684210526316
864	1858601	311.926733441341	0.97402597402597
864	1858859	311.949166898553	0.98701298701299
864	1864519	312.945523260274	0.97435897435897
864	1864863	312.965076717486	0.98717948717949
864	1878311	315.358552531512	0.9746835443038
864	1878812	315.381705988724	0.9873417721519
864	1890237	317.659263360598	0.975
864	1890637	317.67945681781	0.9875
864	1900452	319.25107170911	0.97530864197531
864	1900798	319.272225166322	0.98765432098765
864	1911357	320.876454758834	0.97560975609756
864	1911554	320.897608216046	0.98780487804878
864	1940014	326.350325571563	0.97590361445783
864	1940212	326.374359028775	0.98795180722892
864	1965578	330.577405653762	0.97619047619048
864	1965905	330.600159110974	0.98809523809524
864	1986943	334.30911258902	0.97647058823529
864	1987281	334.332826046232	0.98823529411765
864	1990313	334.888897749637	0.97674418604651
864	1990581	334.910371206849	0.98837209302326
864	2003660	337.098314222755	0.97701149425287
864	2003930	337.119467679967	0.98850574712644
864	2006970	337.706761509536	0.97727272727273
864	2007168	337.730474966748	0.98863636363636
864	2055573	345.203840672012	0.97752808988764
864	2055831	345.226274129224	0.98876404494382
864	2055869	345.247945004456	0.97777777777778
864	2056067	345.271338461668	0.98888888888889
864	2070356	347.736531538376	0.97802197802198
864	2070670	347.755764995588	0.98901098901099
864	2103570	352.80227688077	0.97826086956522
864	2103890	352.822790337982	0.98913043478261
864	2109370	353.701308008918	0.97849462365591
864	2109725	353.72278146613	0.98924731182796
864	2125333	356.802622590641	0.97872340425532
864	2125530	356.822816047853	0.98936170212766
864	2140800	359.095819795819	0.97894736842105
864	2141108	359.117933253031	0.98947368421053
864	2145272	359.612220858064	0.97916666666667
864	2145483	359.633054315276	0.98958333333333
864	2145696	359.829939444305	0.97938144329897
864	2145897	359.853332901517	0.98969072164948
864	2158728	361.677390629727	0.97959183673469
864	2158928	361.695984086939	0.98979591836735
864	2170621	364.19982980142	0.97979797979798
864	2170818	364.221303258632	0.98989898989899
864	2173096	364.513409953277	0.98
864	2173423	364.536483410489	0.99
