version 2
run CSMA-5-20160808-10:03:21-14632
attr beaconInterval 10s
attr configname CSMA
attr datetime 20160808-10:03:21
attr experiment CSMA
attr inifile simulations/omnetpp.ini
attr iterationvars "$packetLength=76B, $sendInt=2.25, $beaconInterval=10s, $0=10s/2, $1=3 * 10s"
attr iterationvars2 "$packetLength=76B, $sendInt=2.25, $beaconInterval=10s, $0=10s/2, $1=3 * 10s, $repetition=0"
attr measurement "$packetLength=76B, $sendInt=2.25, $beaconInterval=10s, $0=10s/2, $1=3 * 10s"
attr network multi_gateway.Net802154MultiGateway
attr packetLength 76B
attr processid 14632
attr repetition 0
attr replication #0
attr resultdir ../results
attr runnumber 5
attr seedset 0
attr sendInt 2.25
param **.configurator.addStaticRoutes false
param **.dumpRoutes false
param **.dumpTopology false
param **.host[*].**.gpsr.beaconInterval "${beaconInterval = 10s}"
param **.host[*].**.gpsr.maxJitter ${$beaconInterval/2}
param **.host[*].**.gpsr.neighborValidityInterval "${3 * $beaconInterval}"
param **.host[*].**.gpsr.positionByteLength "2 B"
param **.host[*].**.gpsr.routingStrategy "\"StraightestPath\""
param **.host[*].**.trafficgen.continueSendingDummyPackets true
param **.host[*].**.trafficgen.coolDownDuration 15s
param **.host[*].**.trafficgen.destAddresses "\"host[0].wrappedHost(modulepath)\""
param **.host[*].**.trafficgen.packetLength "${packetLength = 76B}"
param **.host[*].**.trafficgen.sendInterval "exponential(${sendInt=1.0..2.5 step 0.25}s)"
param **.host[*].**.trafficgen.warmUpDuration 160s
param **.host[*].**.wlan[*].mac.queueLength 30
param **.host[*].**.wlan[*].macType "\"Ieee802154NarrowbandMac\""
param **.host[*].**.wlan[*].radio.receiver.minInterferencePower "-100 dBm"
param **.host[*].**.wlan[*].radio.transmitter.power "0.0035 W"
param **.host[*].hostType "\"SimpleHost\""
param **.host[*].mobilityType "\"StaticConcentricWrappingMobility\""
param **.host[0].**.trafficgen.numPackets 0
param **.host[1..].**.trafficgen.numPackets 100
param **.numHosts 62
param **.radioMedium.rangeFilter "\"interferenceRange\""
param **.routingTable.addressType "\"modulepath\""
param **.routingTableType "\"GenericRoutingTable\""

vector 9  Net802154MultiGateway.host[0].wrappedHost.trafficgen  sentDummyPk:vector(packetBytes)  ETV
attr interpolationmode  none
attr source  sentDummyPk
attr title  "dummy packets sent, vector(packetBytes)"
vector 23  Net802154MultiGateway.host[1].wrappedHost.trafficgen  sentDummyPk:vector(packetBytes)  ETV
attr interpolationmode  none
attr source  sentDummyPk
attr title  "dummy packets sent, vector(packetBytes)"
vector 37  Net802154MultiGateway.host[2].wrappedHost.trafficgen  sentDummyPk:vector(packetBytes)  ETV
attr interpolationmode  none
attr source  sentDummyPk
attr title  "dummy packets sent, vector(packetBytes)"
vector 51  Net802154MultiGateway.host[3].wrappedHost.trafficgen  sentDummyPk:vector(packetBytes)  ETV
attr interpolationmode  none
attr source  sentDummyPk
attr title  "dummy packets sent, vector(packetBytes)"
vector 65  Net802154MultiGateway.host[4].wrappedHost.trafficgen  sentDummyPk:vector(packetBytes)  ETV
attr interpolationmode  none
attr source  sentDummyPk
attr title  "dummy packets sent, vector(packetBytes)"
vector 79  Net802154MultiGateway.host[5].wrappedHost.trafficgen  sentDummyPk:vector(packetBytes)  ETV
attr interpolationmode  none
attr source  sentDummyPk
attr title  "dummy packets sent, vector(packetBytes)"
vector 93  Net802154MultiGateway.host[6].wrappedHost.trafficgen  sentDummyPk:vector(packetBytes)  ETV
attr interpolationmode  none
attr source  sentDummyPk
attr title  "dummy packets sent, vector(packetBytes)"
vector 107  Net802154MultiGateway.host[7].wrappedHost.trafficgen  sentDummyPk:vector(packetBytes)  ETV
attr interpolationmode  none
attr source  sentDummyPk
attr title  "dummy packets sent, vector(packetBytes)"
vector 121  Net802154MultiGateway.host[8].wrappedHost.trafficgen  sentDummyPk:vector(packetBytes)  ETV
attr interpolationmode  none
attr source  sentDummyPk
attr title  "dummy packets sent, vector(packetBytes)"
vector 135  Net802154MultiGateway.host[9].wrappedHost.trafficgen  sentDummyPk:vector(packetBytes)  ETV
attr interpolationmode  none
attr source  sentDummyPk
attr title  "dummy packets sent, vector(packetBytes)"
vector 149  Net802154MultiGateway.host[10].wrappedHost.trafficgen  sentDummyPk:vector(packetBytes)  ETV
attr interpolationmode  none
attr source  sentDummyPk
attr title  "dummy packets sent, vector(packetBytes)"
vector 163  Net802154MultiGateway.host[11].wrappedHost.trafficgen  sentDummyPk:vector(packetBytes)  ETV
attr interpolationmode  none
attr source  sentDummyPk
attr title  "dummy packets sent, vector(packetBytes)"
vector 177  Net802154MultiGateway.host[12].wrappedHost.trafficgen  sentDummyPk:vector(packetBytes)  ETV
attr interpolationmode  none
attr source  sentDummyPk
attr title  "dummy packets sent, vector(packetBytes)"
vector 191  Net802154MultiGateway.host[13].wrappedHost.trafficgen  sentDummyPk:vector(packetBytes)  ETV
attr interpolationmode  none
attr source  sentDummyPk
attr title  "dummy packets sent, vector(packetBytes)"
vector 205  Net802154MultiGateway.host[14].wrappedHost.trafficgen  sentDummyPk:vector(packetBytes)  ETV
attr interpolationmode  none
attr source  sentDummyPk
attr title  "dummy packets sent, vector(packetBytes)"
vector 219  Net802154MultiGateway.host[15].wrappedHost.trafficgen  sentDummyPk:vector(packetBytes)  ETV
attr interpolationmode  none
attr source  sentDummyPk
attr title  "dummy packets sent, vector(packetBytes)"
vector 233  Net802154MultiGateway.host[16].wrappedHost.trafficgen  sentDummyPk:vector(packetBytes)  ETV
attr interpolationmode  none
attr source  sentDummyPk
attr title  "dummy packets sent, vector(packetBytes)"
vector 247  Net802154MultiGateway.host[17].wrappedHost.trafficgen  sentDummyPk:vector(packetBytes)  ETV
attr interpolationmode  none
attr source  sentDummyPk
attr title  "dummy packets sent, vector(packetBytes)"
vector 261  Net802154MultiGateway.host[18].wrappedHost.trafficgen  sentDummyPk:vector(packetBytes)  ETV
attr interpolationmode  none
attr source  sentDummyPk
attr title  "dummy packets sent, vector(packetBytes)"
vector 275  Net802154MultiGateway.host[19].wrappedHost.trafficgen  sentDummyPk:vector(packetBytes)  ETV
attr interpolationmode  none
attr source  sentDummyPk
attr title  "dummy packets sent, vector(packetBytes)"
vector 289  Net802154MultiGateway.host[20].wrappedHost.trafficgen  sentDummyPk:vector(packetBytes)  ETV
attr interpolationmode  none
attr source  sentDummyPk
attr title  "dummy packets sent, vector(packetBytes)"
vector 303  Net802154MultiGateway.host[21].wrappedHost.trafficgen  sentDummyPk:vector(packetBytes)  ETV
attr interpolationmode  none
attr source  sentDummyPk
attr title  "dummy packets sent, vector(packetBytes)"
vector 317  Net802154MultiGateway.host[22].wrappedHost.trafficgen  sentDummyPk:vector(packetBytes)  ETV
attr interpolationmode  none
attr source  sentDummyPk
attr title  "dummy packets sent, vector(packetBytes)"
vector 331  Net802154MultiGateway.host[23].wrappedHost.trafficgen  sentDummyPk:vector(packetBytes)  ETV
attr interpolationmode  none
attr source  sentDummyPk
attr title  "dummy packets sent, vector(packetBytes)"
vector 345  Net802154MultiGateway.host[24].wrappedHost.trafficgen  sentDummyPk:vector(packetBytes)  ETV
attr interpolationmode  none
attr source  sentDummyPk
attr title  "dummy packets sent, vector(packetBytes)"
vector 359  Net802154MultiGateway.host[25].wrappedHost.trafficgen  sentDummyPk:vector(packetBytes)  ETV
attr interpolationmode  none
attr source  sentDummyPk
attr title  "dummy packets sent, vector(packetBytes)"
vector 373  Net802154MultiGateway.host[26].wrappedHost.trafficgen  sentDummyPk:vector(packetBytes)  ETV
attr interpolationmode  none
attr source  sentDummyPk
attr title  "dummy packets sent, vector(packetBytes)"
vector 387  Net802154MultiGateway.host[27].wrappedHost.trafficgen  sentDummyPk:vector(packetBytes)  ETV
attr interpolationmode  none
attr source  sentDummyPk
attr title  "dummy packets sent, vector(packetBytes)"
vector 401  Net802154MultiGateway.host[28].wrappedHost.trafficgen  sentDummyPk:vector(packetBytes)  ETV
attr interpolationmode  none
attr source  sentDummyPk
attr title  "dummy packets sent, vector(packetBytes)"
vector 415  Net802154MultiGateway.host[29].wrappedHost.trafficgen  sentDummyPk:vector(packetBytes)  ETV
attr interpolationmode  none
attr source  sentDummyPk
attr title  "dummy packets sent, vector(packetBytes)"
vector 429  Net802154MultiGateway.host[30].wrappedHost.trafficgen  sentDummyPk:vector(packetBytes)  ETV
attr interpolationmode  none
attr source  sentDummyPk
attr title  "dummy packets sent, vector(packetBytes)"
vector 443  Net802154MultiGateway.host[31].wrappedHost.trafficgen  sentDummyPk:vector(packetBytes)  ETV
attr interpolationmode  none
attr source  sentDummyPk
attr title  "dummy packets sent, vector(packetBytes)"
vector 457  Net802154MultiGateway.host[32].wrappedHost.trafficgen  sentDummyPk:vector(packetBytes)  ETV
attr interpolationmode  none
attr source  sentDummyPk
attr title  "dummy packets sent, vector(packetBytes)"
vector 471  Net802154MultiGateway.host[33].wrappedHost.trafficgen  sentDummyPk:vector(packetBytes)  ETV
attr interpolationmode  none
attr source  sentDummyPk
attr title  "dummy packets sent, vector(packetBytes)"
vector 485  Net802154MultiGateway.host[34].wrappedHost.trafficgen  sentDummyPk:vector(packetBytes)  ETV
attr interpolationmode  none
attr source  sentDummyPk
attr title  "dummy packets sent, vector(packetBytes)"
vector 499  Net802154MultiGateway.host[35].wrappedHost.trafficgen  sentDummyPk:vector(packetBytes)  ETV
attr interpolationmode  none
attr source  sentDummyPk
attr title  "dummy packets sent, vector(packetBytes)"
vector 513  Net802154MultiGateway.host[36].wrappedHost.trafficgen  sentDummyPk:vector(packetBytes)  ETV
attr interpolationmode  none
attr source  sentDummyPk
attr title  "dummy packets sent, vector(packetBytes)"
vector 527  Net802154MultiGateway.host[37].wrappedHost.trafficgen  sentDummyPk:vector(packetBytes)  ETV
attr interpolationmode  none
attr source  sentDummyPk
attr title  "dummy packets sent, vector(packetBytes)"
vector 541  Net802154MultiGateway.host[38].wrappedHost.trafficgen  sentDummyPk:vector(packetBytes)  ETV
attr interpolationmode  none
attr source  sentDummyPk
attr title  "dummy packets sent, vector(packetBytes)"
vector 555  Net802154MultiGateway.host[39].wrappedHost.trafficgen  sentDummyPk:vector(packetBytes)  ETV
attr interpolationmode  none
attr source  sentDummyPk
attr title  "dummy packets sent, vector(packetBytes)"
vector 569  Net802154MultiGateway.host[40].wrappedHost.trafficgen  sentDummyPk:vector(packetBytes)  ETV
attr interpolationmode  none
attr source  sentDummyPk
attr title  "dummy packets sent, vector(packetBytes)"
vector 583  Net802154MultiGateway.host[41].wrappedHost.trafficgen  sentDummyPk:vector(packetBytes)  ETV
attr interpolationmode  none
attr source  sentDummyPk
attr title  "dummy packets sent, vector(packetBytes)"
vector 597  Net802154MultiGateway.host[42].wrappedHost.trafficgen  sentDummyPk:vector(packetBytes)  ETV
attr interpolationmode  none
attr source  sentDummyPk
attr title  "dummy packets sent, vector(packetBytes)"
vector 611  Net802154MultiGateway.host[43].wrappedHost.trafficgen  sentDummyPk:vector(packetBytes)  ETV
attr interpolationmode  none
attr source  sentDummyPk
attr title  "dummy packets sent, vector(packetBytes)"
vector 625  Net802154MultiGateway.host[44].wrappedHost.trafficgen  sentDummyPk:vector(packetBytes)  ETV
attr interpolationmode  none
attr source  sentDummyPk
attr title  "dummy packets sent, vector(packetBytes)"
vector 639  Net802154MultiGateway.host[45].wrappedHost.trafficgen  sentDummyPk:vector(packetBytes)  ETV
attr interpolationmode  none
attr source  sentDummyPk
attr title  "dummy packets sent, vector(packetBytes)"
vector 653  Net802154MultiGateway.host[46].wrappedHost.trafficgen  sentDummyPk:vector(packetBytes)  ETV
attr interpolationmode  none
attr source  sentDummyPk
attr title  "dummy packets sent, vector(packetBytes)"
vector 667  Net802154MultiGateway.host[47].wrappedHost.trafficgen  sentDummyPk:vector(packetBytes)  ETV
attr interpolationmode  none
attr source  sentDummyPk
attr title  "dummy packets sent, vector(packetBytes)"
vector 681  Net802154MultiGateway.host[48].wrappedHost.trafficgen  sentDummyPk:vector(packetBytes)  ETV
attr interpolationmode  none
attr source  sentDummyPk
attr title  "dummy packets sent, vector(packetBytes)"
vector 695  Net802154MultiGateway.host[49].wrappedHost.trafficgen  sentDummyPk:vector(packetBytes)  ETV
attr interpolationmode  none
attr source  sentDummyPk
attr title  "dummy packets sent, vector(packetBytes)"
vector 709  Net802154MultiGateway.host[50].wrappedHost.trafficgen  sentDummyPk:vector(packetBytes)  ETV
attr interpolationmode  none
attr source  sentDummyPk
attr title  "dummy packets sent, vector(packetBytes)"
vector 723  Net802154MultiGateway.host[51].wrappedHost.trafficgen  sentDummyPk:vector(packetBytes)  ETV
attr interpolationmode  none
attr source  sentDummyPk
attr title  "dummy packets sent, vector(packetBytes)"
vector 737  Net802154MultiGateway.host[52].wrappedHost.trafficgen  sentDummyPk:vector(packetBytes)  ETV
attr interpolationmode  none
attr source  sentDummyPk
attr title  "dummy packets sent, vector(packetBytes)"
vector 751  Net802154MultiGateway.host[53].wrappedHost.trafficgen  sentDummyPk:vector(packetBytes)  ETV
attr interpolationmode  none
attr source  sentDummyPk
attr title  "dummy packets sent, vector(packetBytes)"
vector 765  Net802154MultiGateway.host[54].wrappedHost.trafficgen  sentDummyPk:vector(packetBytes)  ETV
attr interpolationmode  none
attr source  sentDummyPk
attr title  "dummy packets sent, vector(packetBytes)"
vector 779  Net802154MultiGateway.host[55].wrappedHost.trafficgen  sentDummyPk:vector(packetBytes)  ETV
attr interpolationmode  none
attr source  sentDummyPk
attr title  "dummy packets sent, vector(packetBytes)"
vector 793  Net802154MultiGateway.host[56].wrappedHost.trafficgen  sentDummyPk:vector(packetBytes)  ETV
attr interpolationmode  none
attr source  sentDummyPk
attr title  "dummy packets sent, vector(packetBytes)"
vector 807  Net802154MultiGateway.host[57].wrappedHost.trafficgen  sentDummyPk:vector(packetBytes)  ETV
attr interpolationmode  none
attr source  sentDummyPk
attr title  "dummy packets sent, vector(packetBytes)"
vector 821  Net802154MultiGateway.host[58].wrappedHost.trafficgen  sentDummyPk:vector(packetBytes)  ETV
attr interpolationmode  none
attr source  sentDummyPk
attr title  "dummy packets sent, vector(packetBytes)"
vector 835  Net802154MultiGateway.host[59].wrappedHost.trafficgen  sentDummyPk:vector(packetBytes)  ETV
attr interpolationmode  none
attr source  sentDummyPk
attr title  "dummy packets sent, vector(packetBytes)"
vector 849  Net802154MultiGateway.host[60].wrappedHost.trafficgen  sentDummyPk:vector(packetBytes)  ETV
attr interpolationmode  none
attr source  sentDummyPk
attr title  "dummy packets sent, vector(packetBytes)"
vector 863  Net802154MultiGateway.host[61].wrappedHost.trafficgen  sentDummyPk:vector(packetBytes)  ETV
attr interpolationmode  none
attr source  sentDummyPk
attr title  "dummy packets sent, vector(packetBytes)"
vector 272  Net802154MultiGateway.host[19].wrappedHost.trafficgen  sentPk:vector(packetBytes)  ETV
attr interpolationmode  none
attr source  sentPk
attr title  "packets sent, vector(packetBytes)"
vector 276  Net802154MultiGateway.host[19].wrappedHost.trafficgen  PRR:vector  ETV
attr interpolationmode  none
attr source  count(sinkRcvdPk)/count(sentPk)
attr title  "PRR, vector"
vector 274  Net802154MultiGateway.host[19].wrappedHost.trafficgen  sinkRcvdPk:vector(packetBytes)  ETV
attr interpolationmode  none
attr source  sinkRcvdPk
attr title  "own packets received by sink, vector(packetBytes)"
vector 5  Net802154MultiGateway.host[0].wrappedHost.trafficgen  rcvdPk:vector(packetBytes)  ETV
attr interpolationmode  none
attr source  rcvdPk
attr title  "packets received, vector(packetBytes)"
vector 7  Net802154MultiGateway.host[0].wrappedHost.trafficgen  endToEndDelay:vector  ETV
attr interpolationmode  none
attr source  messageAge(rcvdPk)
attr title  "end-to-end delay, vector"
attr unit  s
vector 468  Net802154MultiGateway.host[33].wrappedHost.trafficgen  sentPk:vector(packetBytes)  ETV
attr interpolationmode  none
attr source  sentPk
attr title  "packets sent, vector(packetBytes)"
vector 472  Net802154MultiGateway.host[33].wrappedHost.trafficgen  PRR:vector  ETV
attr interpolationmode  none
attr source  count(sinkRcvdPk)/count(sentPk)
attr title  "PRR, vector"
vector 286  Net802154MultiGateway.host[20].wrappedHost.trafficgen  sentPk:vector(packetBytes)  ETV
attr interpolationmode  none
attr source  sentPk
attr title  "packets sent, vector(packetBytes)"
vector 290  Net802154MultiGateway.host[20].wrappedHost.trafficgen  PRR:vector  ETV
attr interpolationmode  none
attr source  count(sinkRcvdPk)/count(sentPk)
attr title  "PRR, vector"
vector 524  Net802154MultiGateway.host[37].wrappedHost.trafficgen  sentPk:vector(packetBytes)  ETV
attr interpolationmode  none
attr source  sentPk
attr title  "packets sent, vector(packetBytes)"
vector 528  Net802154MultiGateway.host[37].wrappedHost.trafficgen  PRR:vector  ETV
attr interpolationmode  none
attr source  count(sinkRcvdPk)/count(sentPk)
attr title  "PRR, vector"
vector 470  Net802154MultiGateway.host[33].wrappedHost.trafficgen  sinkRcvdPk:vector(packetBytes)  ETV
attr interpolationmode  none
attr source  sinkRcvdPk
attr title  "own packets received by sink, vector(packetBytes)"
vector 288  Net802154MultiGateway.host[20].wrappedHost.trafficgen  sinkRcvdPk:vector(packetBytes)  ETV
attr interpolationmode  none
attr source  sinkRcvdPk
attr title  "own packets received by sink, vector(packetBytes)"
vector 526  Net802154MultiGateway.host[37].wrappedHost.trafficgen  sinkRcvdPk:vector(packetBytes)  ETV
attr interpolationmode  none
attr source  sinkRcvdPk
attr title  "own packets received by sink, vector(packetBytes)"
vector 678  Net802154MultiGateway.host[48].wrappedHost.trafficgen  sentPk:vector(packetBytes)  ETV
attr interpolationmode  none
attr source  sentPk
attr title  "packets sent, vector(packetBytes)"
vector 682  Net802154MultiGateway.host[48].wrappedHost.trafficgen  PRR:vector  ETV
attr interpolationmode  none
attr source  count(sinkRcvdPk)/count(sentPk)
attr title  "PRR, vector"
vector 174  Net802154MultiGateway.host[12].wrappedHost.trafficgen  sentPk:vector(packetBytes)  ETV
attr interpolationmode  none
attr source  sentPk
attr title  "packets sent, vector(packetBytes)"
vector 178  Net802154MultiGateway.host[12].wrappedHost.trafficgen  PRR:vector  ETV
attr interpolationmode  none
attr source  count(sinkRcvdPk)/count(sentPk)
attr title  "PRR, vector"
vector 314  Net802154MultiGateway.host[22].wrappedHost.trafficgen  sentPk:vector(packetBytes)  ETV
attr interpolationmode  none
attr source  sentPk
attr title  "packets sent, vector(packetBytes)"
vector 318  Net802154MultiGateway.host[22].wrappedHost.trafficgen  PRR:vector  ETV
attr interpolationmode  none
attr source  count(sinkRcvdPk)/count(sentPk)
attr title  "PRR, vector"
vector 176  Net802154MultiGateway.host[12].wrappedHost.trafficgen  sinkRcvdPk:vector(packetBytes)  ETV
attr interpolationmode  none
attr source  sinkRcvdPk
attr title  "own packets received by sink, vector(packetBytes)"
vector 316  Net802154MultiGateway.host[22].wrappedHost.trafficgen  sinkRcvdPk:vector(packetBytes)  ETV
attr interpolationmode  none
attr source  sinkRcvdPk
attr title  "own packets received by sink, vector(packetBytes)"
vector 680  Net802154MultiGateway.host[48].wrappedHost.trafficgen  sinkRcvdPk:vector(packetBytes)  ETV
attr interpolationmode  none
attr source  sinkRcvdPk
attr title  "own packets received by sink, vector(packetBytes)"
vector 566  Net802154MultiGateway.host[40].wrappedHost.trafficgen  sentPk:vector(packetBytes)  ETV
attr interpolationmode  none
attr source  sentPk
attr title  "packets sent, vector(packetBytes)"
vector 570  Net802154MultiGateway.host[40].wrappedHost.trafficgen  PRR:vector  ETV
attr interpolationmode  none
attr source  count(sinkRcvdPk)/count(sentPk)
attr title  "PRR, vector"
vector 568  Net802154MultiGateway.host[40].wrappedHost.trafficgen  sinkRcvdPk:vector(packetBytes)  ETV
attr interpolationmode  none
attr source  sinkRcvdPk
attr title  "own packets received by sink, vector(packetBytes)"
vector 76  Net802154MultiGateway.host[5].wrappedHost.trafficgen  sentPk:vector(packetBytes)  ETV
attr interpolationmode  none
attr source  sentPk
attr title  "packets sent, vector(packetBytes)"
vector 80  Net802154MultiGateway.host[5].wrappedHost.trafficgen  PRR:vector  ETV
attr interpolationmode  none
attr source  count(sinkRcvdPk)/count(sentPk)
attr title  "PRR, vector"
vector 650  Net802154MultiGateway.host[46].wrappedHost.trafficgen  sentPk:vector(packetBytes)  ETV
attr interpolationmode  none
attr source  sentPk
attr title  "packets sent, vector(packetBytes)"
vector 654  Net802154MultiGateway.host[46].wrappedHost.trafficgen  PRR:vector  ETV
attr interpolationmode  none
attr source  count(sinkRcvdPk)/count(sentPk)
attr title  "PRR, vector"
vector 78  Net802154MultiGateway.host[5].wrappedHost.trafficgen  sinkRcvdPk:vector(packetBytes)  ETV
attr interpolationmode  none
attr source  sinkRcvdPk
attr title  "own packets received by sink, vector(packetBytes)"
vector 652  Net802154MultiGateway.host[46].wrappedHost.trafficgen  sinkRcvdPk:vector(packetBytes)  ETV
attr interpolationmode  none
attr source  sinkRcvdPk
attr title  "own packets received by sink, vector(packetBytes)"
vector 720  Net802154MultiGateway.host[51].wrappedHost.trafficgen  sentPk:vector(packetBytes)  ETV
attr interpolationmode  none
attr source  sentPk
attr title  "packets sent, vector(packetBytes)"
vector 724  Net802154MultiGateway.host[51].wrappedHost.trafficgen  PRR:vector  ETV
attr interpolationmode  none
attr source  count(sinkRcvdPk)/count(sentPk)
attr title  "PRR, vector"
vector 722  Net802154MultiGateway.host[51].wrappedHost.trafficgen  sinkRcvdPk:vector(packetBytes)  ETV
attr interpolationmode  none
attr source  sinkRcvdPk
attr title  "own packets received by sink, vector(packetBytes)"
vector 776  Net802154MultiGateway.host[55].wrappedHost.trafficgen  sentPk:vector(packetBytes)  ETV
attr interpolationmode  none
attr source  sentPk
attr title  "packets sent, vector(packetBytes)"
vector 780  Net802154MultiGateway.host[55].wrappedHost.trafficgen  PRR:vector  ETV
attr interpolationmode  none
attr source  count(sinkRcvdPk)/count(sentPk)
attr title  "PRR, vector"
vector 778  Net802154MultiGateway.host[55].wrappedHost.trafficgen  sinkRcvdPk:vector(packetBytes)  ETV
attr interpolationmode  none
attr source  sinkRcvdPk
attr title  "own packets received by sink, vector(packetBytes)"
vector 846  Net802154MultiGateway.host[60].wrappedHost.trafficgen  sentPk:vector(packetBytes)  ETV
attr interpolationmode  none
attr source  sentPk
attr title  "packets sent, vector(packetBytes)"
vector 850  Net802154MultiGateway.host[60].wrappedHost.trafficgen  PRR:vector  ETV
attr interpolationmode  none
attr source  count(sinkRcvdPk)/count(sentPk)
attr title  "PRR, vector"
vector 62  Net802154MultiGateway.host[4].wrappedHost.trafficgen  sentPk:vector(packetBytes)  ETV
attr interpolationmode  none
attr source  sentPk
attr title  "packets sent, vector(packetBytes)"
vector 66  Net802154MultiGateway.host[4].wrappedHost.trafficgen  PRR:vector  ETV
attr interpolationmode  none
attr source  count(sinkRcvdPk)/count(sentPk)
attr title  "PRR, vector"
vector 848  Net802154MultiGateway.host[60].wrappedHost.trafficgen  sinkRcvdPk:vector(packetBytes)  ETV
attr interpolationmode  none
attr source  sinkRcvdPk
attr title  "own packets received by sink, vector(packetBytes)"
vector 64  Net802154MultiGateway.host[4].wrappedHost.trafficgen  sinkRcvdPk:vector(packetBytes)  ETV
attr interpolationmode  none
attr source  sinkRcvdPk
attr title  "own packets received by sink, vector(packetBytes)"
vector 244  Net802154MultiGateway.host[17].wrappedHost.trafficgen  sentPk:vector(packetBytes)  ETV
attr interpolationmode  none
attr source  sentPk
attr title  "packets sent, vector(packetBytes)"
vector 248  Net802154MultiGateway.host[17].wrappedHost.trafficgen  PRR:vector  ETV
attr interpolationmode  none
attr source  count(sinkRcvdPk)/count(sentPk)
attr title  "PRR, vector"
vector 246  Net802154MultiGateway.host[17].wrappedHost.trafficgen  sinkRcvdPk:vector(packetBytes)  ETV
attr interpolationmode  none
attr source  sinkRcvdPk
attr title  "own packets received by sink, vector(packetBytes)"
vector 20  Net802154MultiGateway.host[1].wrappedHost.trafficgen  sentPk:vector(packetBytes)  ETV
attr interpolationmode  none
attr source  sentPk
attr title  "packets sent, vector(packetBytes)"
vector 24  Net802154MultiGateway.host[1].wrappedHost.trafficgen  PRR:vector  ETV
attr interpolationmode  none
attr source  count(sinkRcvdPk)/count(sentPk)
attr title  "PRR, vector"
vector 22  Net802154MultiGateway.host[1].wrappedHost.trafficgen  sinkRcvdPk:vector(packetBytes)  ETV
attr interpolationmode  none
attr source  sinkRcvdPk
attr title  "own packets received by sink, vector(packetBytes)"
vector 706  Net802154MultiGateway.host[50].wrappedHost.trafficgen  sentPk:vector(packetBytes)  ETV
attr interpolationmode  none
attr source  sentPk
attr title  "packets sent, vector(packetBytes)"
vector 710  Net802154MultiGateway.host[50].wrappedHost.trafficgen  PRR:vector  ETV
attr interpolationmode  none
attr source  count(sinkRcvdPk)/count(sentPk)
attr title  "PRR, vector"
vector 708  Net802154MultiGateway.host[50].wrappedHost.trafficgen  sinkRcvdPk:vector(packetBytes)  ETV
attr interpolationmode  none
attr source  sinkRcvdPk
attr title  "own packets received by sink, vector(packetBytes)"
vector 202  Net802154MultiGateway.host[14].wrappedHost.trafficgen  sentPk:vector(packetBytes)  ETV
attr interpolationmode  none
attr source  sentPk
attr title  "packets sent, vector(packetBytes)"
vector 206  Net802154MultiGateway.host[14].wrappedHost.trafficgen  PRR:vector  ETV
attr interpolationmode  none
attr source  count(sinkRcvdPk)/count(sentPk)
attr title  "PRR, vector"
vector 692  Net802154MultiGateway.host[49].wrappedHost.trafficgen  sentPk:vector(packetBytes)  ETV
attr interpolationmode  none
attr source  sentPk
attr title  "packets sent, vector(packetBytes)"
vector 696  Net802154MultiGateway.host[49].wrappedHost.trafficgen  PRR:vector  ETV
attr interpolationmode  none
attr source  count(sinkRcvdPk)/count(sentPk)
attr title  "PRR, vector"
vector 204  Net802154MultiGateway.host[14].wrappedHost.trafficgen  sinkRcvdPk:vector(packetBytes)  ETV
attr interpolationmode  none
attr source  sinkRcvdPk
attr title  "own packets received by sink, vector(packetBytes)"
vector 694  Net802154MultiGateway.host[49].wrappedHost.trafficgen  sinkRcvdPk:vector(packetBytes)  ETV
attr interpolationmode  none
attr source  sinkRcvdPk
attr title  "own packets received by sink, vector(packetBytes)"
vector 608  Net802154MultiGateway.host[43].wrappedHost.trafficgen  sentPk:vector(packetBytes)  ETV
attr interpolationmode  none
attr source  sentPk
attr title  "packets sent, vector(packetBytes)"
vector 612  Net802154MultiGateway.host[43].wrappedHost.trafficgen  PRR:vector  ETV
attr interpolationmode  none
attr source  count(sinkRcvdPk)/count(sentPk)
attr title  "PRR, vector"
vector 132  Net802154MultiGateway.host[9].wrappedHost.trafficgen  sentPk:vector(packetBytes)  ETV
attr interpolationmode  none
attr source  sentPk
attr title  "packets sent, vector(packetBytes)"
vector 136  Net802154MultiGateway.host[9].wrappedHost.trafficgen  PRR:vector  ETV
attr interpolationmode  none
attr source  count(sinkRcvdPk)/count(sentPk)
attr title  "PRR, vector"
vector 610  Net802154MultiGateway.host[43].wrappedHost.trafficgen  sinkRcvdPk:vector(packetBytes)  ETV
attr interpolationmode  none
attr source  sinkRcvdPk
attr title  "own packets received by sink, vector(packetBytes)"
vector 134  Net802154MultiGateway.host[9].wrappedHost.trafficgen  sinkRcvdPk:vector(packetBytes)  ETV
attr interpolationmode  none
attr source  sinkRcvdPk
attr title  "own packets received by sink, vector(packetBytes)"
vector 804  Net802154MultiGateway.host[57].wrappedHost.trafficgen  sentPk:vector(packetBytes)  ETV
attr interpolationmode  none
attr source  sentPk
attr title  "packets sent, vector(packetBytes)"
vector 808  Net802154MultiGateway.host[57].wrappedHost.trafficgen  PRR:vector  ETV
attr interpolationmode  none
attr source  count(sinkRcvdPk)/count(sentPk)
attr title  "PRR, vector"
vector 146  Net802154MultiGateway.host[10].wrappedHost.trafficgen  sentPk:vector(packetBytes)  ETV
attr interpolationmode  none
attr source  sentPk
attr title  "packets sent, vector(packetBytes)"
vector 150  Net802154MultiGateway.host[10].wrappedHost.trafficgen  PRR:vector  ETV
attr interpolationmode  none
attr source  count(sinkRcvdPk)/count(sentPk)
attr title  "PRR, vector"
vector 148  Net802154MultiGateway.host[10].wrappedHost.trafficgen  sinkRcvdPk:vector(packetBytes)  ETV
attr interpolationmode  none
attr source  sinkRcvdPk
attr title  "own packets received by sink, vector(packetBytes)"
vector 806  Net802154MultiGateway.host[57].wrappedHost.trafficgen  sinkRcvdPk:vector(packetBytes)  ETV
attr interpolationmode  none
attr source  sinkRcvdPk
attr title  "own packets received by sink, vector(packetBytes)"
vector 664  Net802154MultiGateway.host[47].wrappedHost.trafficgen  sentPk:vector(packetBytes)  ETV
attr interpolationmode  none
attr source  sentPk
attr title  "packets sent, vector(packetBytes)"
vector 668  Net802154MultiGateway.host[47].wrappedHost.trafficgen  PRR:vector  ETV
attr interpolationmode  none
attr source  count(sinkRcvdPk)/count(sentPk)
attr title  "PRR, vector"
vector 666  Net802154MultiGateway.host[47].wrappedHost.trafficgen  sinkRcvdPk:vector(packetBytes)  ETV
attr interpolationmode  none
attr source  sinkRcvdPk
attr title  "own packets received by sink, vector(packetBytes)"
vector 510  Net802154MultiGateway.host[36].wrappedHost.trafficgen  sentPk:vector(packetBytes)  ETV
attr interpolationmode  none
attr source  sentPk
attr title  "packets sent, vector(packetBytes)"
vector 514  Net802154MultiGateway.host[36].wrappedHost.trafficgen  PRR:vector  ETV
attr interpolationmode  none
attr source  count(sinkRcvdPk)/count(sentPk)
attr title  "PRR, vector"
vector 512  Net802154MultiGateway.host[36].wrappedHost.trafficgen  sinkRcvdPk:vector(packetBytes)  ETV
attr interpolationmode  none
attr source  sinkRcvdPk
attr title  "own packets received by sink, vector(packetBytes)"
vector 300  Net802154MultiGateway.host[21].wrappedHost.trafficgen  sentPk:vector(packetBytes)  ETV
attr interpolationmode  none
attr source  sentPk
attr title  "packets sent, vector(packetBytes)"
vector 304  Net802154MultiGateway.host[21].wrappedHost.trafficgen  PRR:vector  ETV
attr interpolationmode  none
attr source  count(sinkRcvdPk)/count(sentPk)
attr title  "PRR, vector"
vector 302  Net802154MultiGateway.host[21].wrappedHost.trafficgen  sinkRcvdPk:vector(packetBytes)  ETV
attr interpolationmode  none
attr source  sinkRcvdPk
attr title  "own packets received by sink, vector(packetBytes)"
vector 482  Net802154MultiGateway.host[34].wrappedHost.trafficgen  sentPk:vector(packetBytes)  ETV
attr interpolationmode  none
attr source  sentPk
attr title  "packets sent, vector(packetBytes)"
vector 486  Net802154MultiGateway.host[34].wrappedHost.trafficgen  PRR:vector  ETV
attr interpolationmode  none
attr source  count(sinkRcvdPk)/count(sentPk)
attr title  "PRR, vector"
vector 484  Net802154MultiGateway.host[34].wrappedHost.trafficgen  sinkRcvdPk:vector(packetBytes)  ETV
attr interpolationmode  none
attr source  sinkRcvdPk
attr title  "own packets received by sink, vector(packetBytes)"
vector 454  Net802154MultiGateway.host[32].wrappedHost.trafficgen  sentPk:vector(packetBytes)  ETV
attr interpolationmode  none
attr source  sentPk
attr title  "packets sent, vector(packetBytes)"
vector 458  Net802154MultiGateway.host[32].wrappedHost.trafficgen  PRR:vector  ETV
attr interpolationmode  none
attr source  count(sinkRcvdPk)/count(sentPk)
attr title  "PRR, vector"
vector 456  Net802154MultiGateway.host[32].wrappedHost.trafficgen  sinkRcvdPk:vector(packetBytes)  ETV
attr interpolationmode  none
attr source  sinkRcvdPk
attr title  "own packets received by sink, vector(packetBytes)"
vector 426  Net802154MultiGateway.host[30].wrappedHost.trafficgen  sentPk:vector(packetBytes)  ETV
attr interpolationmode  none
attr source  sentPk
attr title  "packets sent, vector(packetBytes)"
vector 430  Net802154MultiGateway.host[30].wrappedHost.trafficgen  PRR:vector  ETV
attr interpolationmode  none
attr source  count(sinkRcvdPk)/count(sentPk)
attr title  "PRR, vector"
vector 428  Net802154MultiGateway.host[30].wrappedHost.trafficgen  sinkRcvdPk:vector(packetBytes)  ETV
attr interpolationmode  none
attr source  sinkRcvdPk
attr title  "own packets received by sink, vector(packetBytes)"
vector 818  Net802154MultiGateway.host[58].wrappedHost.trafficgen  sentPk:vector(packetBytes)  ETV
attr interpolationmode  none
attr source  sentPk
attr title  "packets sent, vector(packetBytes)"
vector 822  Net802154MultiGateway.host[58].wrappedHost.trafficgen  PRR:vector  ETV
attr interpolationmode  none
attr source  count(sinkRcvdPk)/count(sentPk)
attr title  "PRR, vector"
vector 820  Net802154MultiGateway.host[58].wrappedHost.trafficgen  sinkRcvdPk:vector(packetBytes)  ETV
attr interpolationmode  none
attr source  sinkRcvdPk
attr title  "own packets received by sink, vector(packetBytes)"
vector 734  Net802154MultiGateway.host[52].wrappedHost.trafficgen  sentPk:vector(packetBytes)  ETV
attr interpolationmode  none
attr source  sentPk
attr title  "packets sent, vector(packetBytes)"
vector 738  Net802154MultiGateway.host[52].wrappedHost.trafficgen  PRR:vector  ETV
attr interpolationmode  none
attr source  count(sinkRcvdPk)/count(sentPk)
attr title  "PRR, vector"
vector 736  Net802154MultiGateway.host[52].wrappedHost.trafficgen  sinkRcvdPk:vector(packetBytes)  ETV
attr interpolationmode  none
attr source  sinkRcvdPk
attr title  "own packets received by sink, vector(packetBytes)"
vector 216  Net802154MultiGateway.host[15].wrappedHost.trafficgen  sentPk:vector(packetBytes)  ETV
attr interpolationmode  none
attr source  sentPk
attr title  "packets sent, vector(packetBytes)"
vector 220  Net802154MultiGateway.host[15].wrappedHost.trafficgen  PRR:vector  ETV
attr interpolationmode  none
attr source  count(sinkRcvdPk)/count(sentPk)
attr title  "PRR, vector"
vector 218  Net802154MultiGateway.host[15].wrappedHost.trafficgen  sinkRcvdPk:vector(packetBytes)  ETV
attr interpolationmode  none
attr source  sinkRcvdPk
attr title  "own packets received by sink, vector(packetBytes)"
vector 636  Net802154MultiGateway.host[45].wrappedHost.trafficgen  sentPk:vector(packetBytes)  ETV
attr interpolationmode  none
attr source  sentPk
attr title  "packets sent, vector(packetBytes)"
vector 640  Net802154MultiGateway.host[45].wrappedHost.trafficgen  PRR:vector  ETV
attr interpolationmode  none
attr source  count(sinkRcvdPk)/count(sentPk)
attr title  "PRR, vector"
vector 638  Net802154MultiGateway.host[45].wrappedHost.trafficgen  sinkRcvdPk:vector(packetBytes)  ETV
attr interpolationmode  none
attr source  sinkRcvdPk
attr title  "own packets received by sink, vector(packetBytes)"
vector 622  Net802154MultiGateway.host[44].wrappedHost.trafficgen  sentPk:vector(packetBytes)  ETV
attr interpolationmode  none
attr source  sentPk
attr title  "packets sent, vector(packetBytes)"
vector 626  Net802154MultiGateway.host[44].wrappedHost.trafficgen  PRR:vector  ETV
attr interpolationmode  none
attr source  count(sinkRcvdPk)/count(sentPk)
attr title  "PRR, vector"
vector 624  Net802154MultiGateway.host[44].wrappedHost.trafficgen  sinkRcvdPk:vector(packetBytes)  ETV
attr interpolationmode  none
attr source  sinkRcvdPk
attr title  "own packets received by sink, vector(packetBytes)"
vector 552  Net802154MultiGateway.host[39].wrappedHost.trafficgen  sentPk:vector(packetBytes)  ETV
attr interpolationmode  none
attr source  sentPk
attr title  "packets sent, vector(packetBytes)"
vector 556  Net802154MultiGateway.host[39].wrappedHost.trafficgen  PRR:vector  ETV
attr interpolationmode  none
attr source  count(sinkRcvdPk)/count(sentPk)
attr title  "PRR, vector"
vector 554  Net802154MultiGateway.host[39].wrappedHost.trafficgen  sinkRcvdPk:vector(packetBytes)  ETV
attr interpolationmode  none
attr source  sinkRcvdPk
attr title  "own packets received by sink, vector(packetBytes)"
vector 832  Net802154MultiGateway.host[59].wrappedHost.trafficgen  sentPk:vector(packetBytes)  ETV
attr interpolationmode  none
attr source  sentPk
attr title  "packets sent, vector(packetBytes)"
vector 836  Net802154MultiGateway.host[59].wrappedHost.trafficgen  PRR:vector  ETV
attr interpolationmode  none
attr source  count(sinkRcvdPk)/count(sentPk)
attr title  "PRR, vector"
vector 834  Net802154MultiGateway.host[59].wrappedHost.trafficgen  sinkRcvdPk:vector(packetBytes)  ETV
attr interpolationmode  none
attr source  sinkRcvdPk
attr title  "own packets received by sink, vector(packetBytes)"
vector 580  Net802154MultiGateway.host[41].wrappedHost.trafficgen  sentPk:vector(packetBytes)  ETV
attr interpolationmode  none
attr source  sentPk
attr title  "packets sent, vector(packetBytes)"
vector 584  Net802154MultiGateway.host[41].wrappedHost.trafficgen  PRR:vector  ETV
attr interpolationmode  none
attr source  count(sinkRcvdPk)/count(sentPk)
attr title  "PRR, vector"
vector 496  Net802154MultiGateway.host[35].wrappedHost.trafficgen  sentPk:vector(packetBytes)  ETV
attr interpolationmode  none
attr source  sentPk
attr title  "packets sent, vector(packetBytes)"
vector 500  Net802154MultiGateway.host[35].wrappedHost.trafficgen  PRR:vector  ETV
attr interpolationmode  none
attr source  count(sinkRcvdPk)/count(sentPk)
attr title  "PRR, vector"
vector 582  Net802154MultiGateway.host[41].wrappedHost.trafficgen  sinkRcvdPk:vector(packetBytes)  ETV
attr interpolationmode  none
attr source  sinkRcvdPk
attr title  "own packets received by sink, vector(packetBytes)"
vector 498  Net802154MultiGateway.host[35].wrappedHost.trafficgen  sinkRcvdPk:vector(packetBytes)  ETV
attr interpolationmode  none
attr source  sinkRcvdPk
attr title  "own packets received by sink, vector(packetBytes)"
vector 48  Net802154MultiGateway.host[3].wrappedHost.trafficgen  sentPk:vector(packetBytes)  ETV
attr interpolationmode  none
attr source  sentPk
attr title  "packets sent, vector(packetBytes)"
vector 52  Net802154MultiGateway.host[3].wrappedHost.trafficgen  PRR:vector  ETV
attr interpolationmode  none
attr source  count(sinkRcvdPk)/count(sentPk)
attr title  "PRR, vector"
vector 50  Net802154MultiGateway.host[3].wrappedHost.trafficgen  sinkRcvdPk:vector(packetBytes)  ETV
attr interpolationmode  none
attr source  sinkRcvdPk
attr title  "own packets received by sink, vector(packetBytes)"
vector 762  Net802154MultiGateway.host[54].wrappedHost.trafficgen  sentPk:vector(packetBytes)  ETV
attr interpolationmode  none
attr source  sentPk
attr title  "packets sent, vector(packetBytes)"
vector 766  Net802154MultiGateway.host[54].wrappedHost.trafficgen  PRR:vector  ETV
attr interpolationmode  none
attr source  count(sinkRcvdPk)/count(sentPk)
attr title  "PRR, vector"
vector 764  Net802154MultiGateway.host[54].wrappedHost.trafficgen  sinkRcvdPk:vector(packetBytes)  ETV
attr interpolationmode  none
attr source  sinkRcvdPk
attr title  "own packets received by sink, vector(packetBytes)"
vector 104  Net802154MultiGateway.host[7].wrappedHost.trafficgen  sentPk:vector(packetBytes)  ETV
attr interpolationmode  none
attr source  sentPk
attr title  "packets sent, vector(packetBytes)"
vector 108  Net802154MultiGateway.host[7].wrappedHost.trafficgen  PRR:vector  ETV
attr interpolationmode  none
attr source  count(sinkRcvdPk)/count(sentPk)
attr title  "PRR, vector"
vector 106  Net802154MultiGateway.host[7].wrappedHost.trafficgen  sinkRcvdPk:vector(packetBytes)  ETV
attr interpolationmode  none
attr source  sinkRcvdPk
attr title  "own packets received by sink, vector(packetBytes)"
vector 230  Net802154MultiGateway.host[16].wrappedHost.trafficgen  sentPk:vector(packetBytes)  ETV
attr interpolationmode  none
attr source  sentPk
attr title  "packets sent, vector(packetBytes)"
vector 234  Net802154MultiGateway.host[16].wrappedHost.trafficgen  PRR:vector  ETV
attr interpolationmode  none
attr source  count(sinkRcvdPk)/count(sentPk)
attr title  "PRR, vector"
vector 232  Net802154MultiGateway.host[16].wrappedHost.trafficgen  sinkRcvdPk:vector(packetBytes)  ETV
attr interpolationmode  none
attr source  sinkRcvdPk
attr title  "own packets received by sink, vector(packetBytes)"
vector 860  Net802154MultiGateway.host[61].wrappedHost.trafficgen  sentPk:vector(packetBytes)  ETV
attr interpolationmode  none
attr source  sentPk
attr title  "packets sent, vector(packetBytes)"
vector 864  Net802154MultiGateway.host[61].wrappedHost.trafficgen  PRR:vector  ETV
attr interpolationmode  none
attr source  count(sinkRcvdPk)/count(sentPk)
attr title  "PRR, vector"
vector 862  Net802154MultiGateway.host[61].wrappedHost.trafficgen  sinkRcvdPk:vector(packetBytes)  ETV
attr interpolationmode  none
attr source  sinkRcvdPk
attr title  "own packets received by sink, vector(packetBytes)"
vector 118  Net802154MultiGateway.host[8].wrappedHost.trafficgen  sentPk:vector(packetBytes)  ETV
attr interpolationmode  none
attr source  sentPk
attr title  "packets sent, vector(packetBytes)"
vector 122  Net802154MultiGateway.host[8].wrappedHost.trafficgen  PRR:vector  ETV
attr interpolationmode  none
attr source  count(sinkRcvdPk)/count(sentPk)
attr title  "PRR, vector"
vector 120  Net802154MultiGateway.host[8].wrappedHost.trafficgen  sinkRcvdPk:vector(packetBytes)  ETV
attr interpolationmode  none
attr source  sinkRcvdPk
attr title  "own packets received by sink, vector(packetBytes)"
vector 538  Net802154MultiGateway.host[38].wrappedHost.trafficgen  sentPk:vector(packetBytes)  ETV
attr interpolationmode  none
attr source  sentPk
attr title  "packets sent, vector(packetBytes)"
vector 542  Net802154MultiGateway.host[38].wrappedHost.trafficgen  PRR:vector  ETV
attr interpolationmode  none
attr source  count(sinkRcvdPk)/count(sentPk)
attr title  "PRR, vector"
vector 540  Net802154MultiGateway.host[38].wrappedHost.trafficgen  sinkRcvdPk:vector(packetBytes)  ETV
attr interpolationmode  none
attr source  sinkRcvdPk
attr title  "own packets received by sink, vector(packetBytes)"
vector 594  Net802154MultiGateway.host[42].wrappedHost.trafficgen  sentPk:vector(packetBytes)  ETV
attr interpolationmode  none
attr source  sentPk
attr title  "packets sent, vector(packetBytes)"
vector 598  Net802154MultiGateway.host[42].wrappedHost.trafficgen  PRR:vector  ETV
attr interpolationmode  none
attr source  count(sinkRcvdPk)/count(sentPk)
attr title  "PRR, vector"
vector 596  Net802154MultiGateway.host[42].wrappedHost.trafficgen  sinkRcvdPk:vector(packetBytes)  ETV
attr interpolationmode  none
attr source  sinkRcvdPk
attr title  "own packets received by sink, vector(packetBytes)"
vector 90  Net802154MultiGateway.host[6].wrappedHost.trafficgen  sentPk:vector(packetBytes)  ETV
attr interpolationmode  none
attr source  sentPk
attr title  "packets sent, vector(packetBytes)"
vector 94  Net802154MultiGateway.host[6].wrappedHost.trafficgen  PRR:vector  ETV
attr interpolationmode  none
attr source  count(sinkRcvdPk)/count(sentPk)
attr title  "PRR, vector"
vector 92  Net802154MultiGateway.host[6].wrappedHost.trafficgen  sinkRcvdPk:vector(packetBytes)  ETV
attr interpolationmode  none
attr source  sinkRcvdPk
attr title  "own packets received by sink, vector(packetBytes)"
vector 384  Net802154MultiGateway.host[27].wrappedHost.trafficgen  sentPk:vector(packetBytes)  ETV
attr interpolationmode  none
attr source  sentPk
attr title  "packets sent, vector(packetBytes)"
vector 388  Net802154MultiGateway.host[27].wrappedHost.trafficgen  PRR:vector  ETV
attr interpolationmode  none
attr source  count(sinkRcvdPk)/count(sentPk)
attr title  "PRR, vector"
vector 386  Net802154MultiGateway.host[27].wrappedHost.trafficgen  sinkRcvdPk:vector(packetBytes)  ETV
attr interpolationmode  none
attr source  sinkRcvdPk
attr title  "own packets received by sink, vector(packetBytes)"
vector 188  Net802154MultiGateway.host[13].wrappedHost.trafficgen  sentPk:vector(packetBytes)  ETV
attr interpolationmode  none
attr source  sentPk
attr title  "packets sent, vector(packetBytes)"
vector 192  Net802154MultiGateway.host[13].wrappedHost.trafficgen  PRR:vector  ETV
attr interpolationmode  none
attr source  count(sinkRcvdPk)/count(sentPk)
attr title  "PRR, vector"
vector 190  Net802154MultiGateway.host[13].wrappedHost.trafficgen  sinkRcvdPk:vector(packetBytes)  ETV
attr interpolationmode  none
attr source  sinkRcvdPk
attr title  "own packets received by sink, vector(packetBytes)"
vector 328  Net802154MultiGateway.host[23].wrappedHost.trafficgen  sentPk:vector(packetBytes)  ETV
attr interpolationmode  none
attr source  sentPk
attr title  "packets sent, vector(packetBytes)"
vector 332  Net802154MultiGateway.host[23].wrappedHost.trafficgen  PRR:vector  ETV
attr interpolationmode  none
attr source  count(sinkRcvdPk)/count(sentPk)
attr title  "PRR, vector"
vector 330  Net802154MultiGateway.host[23].wrappedHost.trafficgen  sinkRcvdPk:vector(packetBytes)  ETV
attr interpolationmode  none
attr source  sinkRcvdPk
attr title  "own packets received by sink, vector(packetBytes)"
vector 160  Net802154MultiGateway.host[11].wrappedHost.trafficgen  sentPk:vector(packetBytes)  ETV
attr interpolationmode  none
attr source  sentPk
attr title  "packets sent, vector(packetBytes)"
vector 164  Net802154MultiGateway.host[11].wrappedHost.trafficgen  PRR:vector  ETV
attr interpolationmode  none
attr source  count(sinkRcvdPk)/count(sentPk)
attr title  "PRR, vector"
vector 162  Net802154MultiGateway.host[11].wrappedHost.trafficgen  sinkRcvdPk:vector(packetBytes)  ETV
attr interpolationmode  none
attr source  sinkRcvdPk
attr title  "own packets received by sink, vector(packetBytes)"
vector 370  Net802154MultiGateway.host[26].wrappedHost.trafficgen  sentPk:vector(packetBytes)  ETV
attr interpolationmode  none
attr source  sentPk
attr title  "packets sent, vector(packetBytes)"
vector 374  Net802154MultiGateway.host[26].wrappedHost.trafficgen  PRR:vector  ETV
attr interpolationmode  none
attr source  count(sinkRcvdPk)/count(sentPk)
attr title  "PRR, vector"
vector 372  Net802154MultiGateway.host[26].wrappedHost.trafficgen  sinkRcvdPk:vector(packetBytes)  ETV
attr interpolationmode  none
attr source  sinkRcvdPk
attr title  "own packets received by sink, vector(packetBytes)"
vector 342  Net802154MultiGateway.host[24].wrappedHost.trafficgen  sentPk:vector(packetBytes)  ETV
attr interpolationmode  none
attr source  sentPk
attr title  "packets sent, vector(packetBytes)"
vector 346  Net802154MultiGateway.host[24].wrappedHost.trafficgen  PRR:vector  ETV
attr interpolationmode  none
attr source  count(sinkRcvdPk)/count(sentPk)
attr title  "PRR, vector"
vector 344  Net802154MultiGateway.host[24].wrappedHost.trafficgen  sinkRcvdPk:vector(packetBytes)  ETV
attr interpolationmode  none
attr source  sinkRcvdPk
attr title  "own packets received by sink, vector(packetBytes)"
vector 790  Net802154MultiGateway.host[56].wrappedHost.trafficgen  sentPk:vector(packetBytes)  ETV
attr interpolationmode  none
attr source  sentPk
attr title  "packets sent, vector(packetBytes)"
vector 794  Net802154MultiGateway.host[56].wrappedHost.trafficgen  PRR:vector  ETV
attr interpolationmode  none
attr source  count(sinkRcvdPk)/count(sentPk)
attr title  "PRR, vector"
vector 792  Net802154MultiGateway.host[56].wrappedHost.trafficgen  sinkRcvdPk:vector(packetBytes)  ETV
attr interpolationmode  none
attr source  sinkRcvdPk
attr title  "own packets received by sink, vector(packetBytes)"
vector 412  Net802154MultiGateway.host[29].wrappedHost.trafficgen  sentPk:vector(packetBytes)  ETV
attr interpolationmode  none
attr source  sentPk
attr title  "packets sent, vector(packetBytes)"
vector 416  Net802154MultiGateway.host[29].wrappedHost.trafficgen  PRR:vector  ETV
attr interpolationmode  none
attr source  count(sinkRcvdPk)/count(sentPk)
attr title  "PRR, vector"
vector 414  Net802154MultiGateway.host[29].wrappedHost.trafficgen  sinkRcvdPk:vector(packetBytes)  ETV
attr interpolationmode  none
attr source  sinkRcvdPk
attr title  "own packets received by sink, vector(packetBytes)"
vector 398  Net802154MultiGateway.host[28].wrappedHost.trafficgen  sentPk:vector(packetBytes)  ETV
attr interpolationmode  none
attr source  sentPk
attr title  "packets sent, vector(packetBytes)"
vector 402  Net802154MultiGateway.host[28].wrappedHost.trafficgen  PRR:vector  ETV
attr interpolationmode  none
attr source  count(sinkRcvdPk)/count(sentPk)
attr title  "PRR, vector"
vector 400  Net802154MultiGateway.host[28].wrappedHost.trafficgen  sinkRcvdPk:vector(packetBytes)  ETV
attr interpolationmode  none
attr source  sinkRcvdPk
attr title  "own packets received by sink, vector(packetBytes)"
vector 34  Net802154MultiGateway.host[2].wrappedHost.trafficgen  sentPk:vector(packetBytes)  ETV
attr interpolationmode  none
attr source  sentPk
attr title  "packets sent, vector(packetBytes)"
vector 38  Net802154MultiGateway.host[2].wrappedHost.trafficgen  PRR:vector  ETV
attr interpolationmode  none
attr source  count(sinkRcvdPk)/count(sentPk)
attr title  "PRR, vector"
vector 36  Net802154MultiGateway.host[2].wrappedHost.trafficgen  sinkRcvdPk:vector(packetBytes)  ETV
attr interpolationmode  none
attr source  sinkRcvdPk
attr title  "own packets received by sink, vector(packetBytes)"
vector 356  Net802154MultiGateway.host[25].wrappedHost.trafficgen  sentPk:vector(packetBytes)  ETV
attr interpolationmode  none
attr source  sentPk
attr title  "packets sent, vector(packetBytes)"
vector 360  Net802154MultiGateway.host[25].wrappedHost.trafficgen  PRR:vector  ETV
attr interpolationmode  none
attr source  count(sinkRcvdPk)/count(sentPk)
attr title  "PRR, vector"
vector 358  Net802154MultiGateway.host[25].wrappedHost.trafficgen  sinkRcvdPk:vector(packetBytes)  ETV
attr interpolationmode  none
attr source  sinkRcvdPk
attr title  "own packets received by sink, vector(packetBytes)"
vector 258  Net802154MultiGateway.host[18].wrappedHost.trafficgen  sentPk:vector(packetBytes)  ETV
attr interpolationmode  none
attr source  sentPk
attr title  "packets sent, vector(packetBytes)"
vector 262  Net802154MultiGateway.host[18].wrappedHost.trafficgen  PRR:vector  ETV
attr interpolationmode  none
attr source  count(sinkRcvdPk)/count(sentPk)
attr title  "PRR, vector"
vector 260  Net802154MultiGateway.host[18].wrappedHost.trafficgen  sinkRcvdPk:vector(packetBytes)  ETV
attr interpolationmode  none
attr source  sinkRcvdPk
attr title  "own packets received by sink, vector(packetBytes)"
vector 440  Net802154MultiGateway.host[31].wrappedHost.trafficgen  sentPk:vector(packetBytes)  ETV
attr interpolationmode  none
attr source  sentPk
attr title  "packets sent, vector(packetBytes)"
vector 444  Net802154MultiGateway.host[31].wrappedHost.trafficgen  PRR:vector  ETV
attr interpolationmode  none
attr source  count(sinkRcvdPk)/count(sentPk)
attr title  "PRR, vector"
vector 442  Net802154MultiGateway.host[31].wrappedHost.trafficgen  sinkRcvdPk:vector(packetBytes)  ETV
attr interpolationmode  none
attr source  sinkRcvdPk
attr title  "own packets received by sink, vector(packetBytes)"
vector 748  Net802154MultiGateway.host[53].wrappedHost.trafficgen  sentPk:vector(packetBytes)  ETV
attr interpolationmode  none
attr source  sentPk
attr title  "packets sent, vector(packetBytes)"
vector 752  Net802154MultiGateway.host[53].wrappedHost.trafficgen  PRR:vector  ETV
attr interpolationmode  none
attr source  count(sinkRcvdPk)/count(sentPk)
attr title  "PRR, vector"
vector 750  Net802154MultiGateway.host[53].wrappedHost.trafficgen  sinkRcvdPk:vector(packetBytes)  ETV
attr interpolationmode  none
attr source  sinkRcvdPk
attr title  "own packets received by sink, vector(packetBytes)"
5	823007	161.050644577263	76
5	823375	161.068655274896	76
5	823510	161.073901878895	76
5	823729	161.088842214283	76
5	823955	161.113083359666	76
5	824284	161.177269081156	76
5	824422	161.182097460333	76
5	824602	161.18667821563	76
5	824867	161.211239018483	76
5	825183	161.256096676128	76
5	825383	161.284198386059	76
5	825575	161.290199460701	76
5	825995	161.313261706112	76
5	826508	161.404685111389	76
5	826846	161.469550735673	76
5	827091	161.479449876306	76
5	827244	161.485827479047	76
5	827427	161.493523370532	76
5	827545	161.505475149673	76
5	827681	161.550026991768	76
5	827888	161.582265697796	76
5	828350	161.715482478539	76
5	828580	161.72600151212	76
5	828766	161.735262849789	76
5	829020	161.753696139471	76
5	829359	161.777260934784	76
5	829594	161.792628429884	76
5	829743	161.800765935572	76
5	829857	161.814292341168	76
5	830134	161.859833780187	76
5	830266	161.868505454915	76
5	830609	161.934213324377	76
5	830734	161.943885567279	76
5	830943	162.007779912501	76
5	831053	162.069833193239	76
5	831312	162.082188046468	76
5	831636	162.280761114435	76
5	831912	162.3407834825	76
5	832095	162.360057083222	76
5	832297	162.400920629646	76
5	832494	162.439977026778	76
5	832678	162.484601308953	76
5	832928	162.556992225653	76
5	833289	162.603701687429	76
5	833487	162.636962815032	76
5	833749	162.670018447071	76
5	833928	162.702067572159	76
5	834057	162.720199964481	76
5	834261	162.730962349473	76
5	834598	162.841344186587	76
5	834858	162.907364903346	76
5	835229	163.041498460126	76
5	835532	163.113746967729	76
5	835628	163.141955794651	76
5	835828	163.177175541287	76
5	836035	163.193713216838	76
5	836285	163.230534249332	76
5	836497	163.289231724787	76
5	836762	163.303822127944	76
5	837105	163.366433346562	76
5	837274	163.373973678474	76
5	837475	163.385552397199	76
5	837725	163.432176429587	76
5	837944	163.512211587629	76
5	838035	163.518715590001	76
5	838279	163.543247789623	76
5	838375	163.556062758964	76
5	838572	163.575630984721	76
5	838781	163.586372069541	76
5	838964	163.663435407795	76
5	839087	163.671171401783	76
5	839427	163.703473852363	76
5	839559	163.720989113091	76
5	839769	163.739539648666	76
5	839878	163.744432044581	76
5	840010	163.756790288216	76
5	840407	163.852148816272	76
5	840682	163.889892681816	76
5	840773	163.894490349161	76
5	840976	163.971276102914	76
5	841115	163.989647662044	76
5	841365	163.999316449306	76
5	841473	164.005427890687	76
5	841856	164.204853034929	76
5	841965	164.221351260659	76
5	842144	164.245152766529	76
5	842427	164.263846955652	76
5	842536	164.269518385054	76
5	842736	164.287179881153	76
5	843079	164.305249418419	76
5	843171	164.310680978359	76
5	843388	164.439853676408	76
5	843568	164.446100225577	76
5	843810	164.458562003012	76
5	844018	164.469606535255	76
5	844130	164.481993072817	76
5	844330	164.507120499083	76
5	844503	164.577977588137	76
5	844748	164.696962418574	76
5	844969	164.708092853422	76
5	845379	164.772024733003	76
5	845511	164.818144146115	76
5	845605	164.847269053404	76
5	845871	164.930429420718	76
5	846024	164.938898285335	76
5	846210	164.946112893798	76
5	846336	164.952298759887	76
5	846523	165.006109764147	76
5	846723	165.021533554002	76
5	846909	165.059157811931	76
5	847034	165.063779009674	76
5	847221	165.078108423586	76
5	847371	165.157426557179	76
5	847530	165.165132852524	76
5	847901	165.219623880611	76
5	847994	165.226886856912	76
5	848265	165.323920465727	76
5	848474	165.337598787764	76
5	848725	165.376533914553	76
5	848934	165.388914908229	76
5	849117	165.410463218492	76
5	849319	165.421781793194	76
5	849528	165.532434948002	76
5	849717	165.568706679855	76
5	849849	165.588565864771	76
5	850029	165.635173689345	76
5	850448	165.651005511154	76
5	850613	165.658285378703	76
5	850737	165.667080414035	76
5	850860	165.772118153064	76
5	851052	165.782381167147	76
5	851248	165.807121803136	76
5	851450	165.819203380865	76
5	851633	165.899671787477	76
5	851860	165.95389824046	76
5	852019	165.962532865754	76
5	852132	165.985218353158	76
5	852259	165.994194905803	76
5	852368	166.037722099551	76
5	852481	166.052794236923	76
5	852662	166.067535078664	76
5	852793	166.101221995919	76
5	852977	166.12194226081	76
5	853242	166.22891766208	76
5	853376	166.305843277483	76
5	853640	166.411900436007	76
5	853868	166.422505387974	76
5	854113	166.431951480198	76
5	854346	166.457872634639	76
5	854455	166.464970069648	76
5	854567	166.489251422595	76
5	854762	166.584452244878	76
5	854948	166.642021219468	76
5	855147	166.65552330444	76
5	855278	166.696485430409	76
5	855457	166.760099567346	76
5	855650	166.794177911821	76
5	855831	166.831774232848	76
5	856024	166.938391346445	76
5	856207	166.95740885496	76
5	856409	167.03563303529	76
5	856534	167.083608230603	76
5	856641	167.141816852445	76
5	856825	167.197769415632	76
5	857024	167.312893016325	76
5	857152	167.358137082122	76
5	857328	167.369499075901	76
5	857579	167.391995587769	76
5	857855	167.508947020495	76
5	858106	167.525053961579	76
5	858289	167.596261105707	76
5	858565	167.641681450391	76
5	858861	167.662106587579	76
5	858968	167.667611254707	76
5	859167	167.690889951064	76
5	859369	167.709288311746	76
5	859501	167.737521041171	76
5	859678	167.801737542538	76
5	860008	167.815279829356	76
5	860158	167.823261469324	76
5	860341	167.853071297509	76
5	860543	167.929519008998	76
5	860740	167.951306051691	76
5	860924	167.987110443621	76
5	861209	168.023552417127	76
5	861333	168.033011111338	76
5	861535	168.139225648902	76
5	861737	168.25246413102	76
5	861936	168.264603026724	76
5	862136	168.281517518412	76
5	862263	168.289338565993	76
5	862496	168.298388255598	76
5	862709	168.316148477658	76
5	862890	168.380237883127	76
5	863073	168.587732701086	76
5	863282	168.696277572089	76
5	863391	168.810280727983	76
5	863502	168.856238692653	76
5	863746	168.870518955617	76
5	863944	168.920643048755	76
5	864137	169.035876761323	76
5	864323	169.054660800955	76
5	864525	169.157702785368	76
5	864890	169.175962915623	76
5	865084	169.187665975899	76
5	865190	169.192530643027	76
5	865297	169.19795338204	76
5	865410	169.23440778941	76
5	865675	169.350494300549	76
5	865877	169.397100137164	76
5	866007	169.522153269964	76
5	866342	169.538200469638	76
5	866561	169.552081033842	76
5	866673	169.576729578414	76
5	866871	169.63932372848	76
5	866983	169.658177525634	76
5	867077	169.733070245813	76
5	867200	169.744416217425	76
5	867405	169.788190361386	76
5	867643	169.794765290861	76
5	867777	169.80389389904	76
5	868028	169.847468953386	76
5	868240	169.939030403546	76
5	868354	169.948220927911	76
5	868610	169.98672893315	76
5	868797	170.000660704941	76
5	869065	170.028773589752	76
5	869319	170.046739387526	76
5	869431	170.09760239409	76
5	869822	170.202031795604	76
5	869968	170.222321947756	76
5	870100	170.232337112845	76
5	870280	170.331435526879	76
5	870463	170.360405693655	76
5	870768	170.386885166619	76
5	870970	170.400358635479	76
5	871095	170.433739909462	76
5	871301	170.492332355814	76
5	871497	170.505969671662	76
5	871757	170.546960030818	76
5	871960	170.609706774002	76
5	872167	170.632874960451	76
5	872332	170.640233039708	76
5	872657	170.709664216713	76
5	872866	170.748029020075	76
5	873052	170.790689760279	76
5	873259	170.849218850627	76
5	873356	170.858296055629	76
5	873554	170.868417388698	76
5	873801	170.976418752014	76
5	874010	171.013648966521	76
5	874201	171.085954031113	76
5	874315	171.136388875639	76
5	874455	171.143173280417	76
5	874671	171.157684711209	76
5	874852	171.203927575224	76
5	874948	171.263030702458	76
5	875145	171.317014583578	76
5	875421	171.340763300597	76
5	875747	171.388288996427	76
5	875859	171.409483267937	76
5	875982	171.430648086939	76
5	876163	171.471638914478	76
5	876389	171.505766913352	76
5	876622	171.514559220413	76
5	876799	171.519371960206	76
5	877013	171.527358603728	76
5	877146	171.5345957199	76
5	877447	171.607276544889	76
5	877573	171.611780411548	76
5	877895	171.629212685266	76
5	878170	171.732827185048	76
5	878351	171.78432139619	76
5	878642	171.844520027371	76
5	878828	171.867526777924	76
5	878953	171.885610878128	76
5	879121	171.895306838952	76
5	879497	171.938616820948	76
5	879767	171.974797531221	76
5	880316	172.017209761913	76
5	880457	172.027260827285	76
5	880567	172.032446161541	76
5	880750	172.044544222526	76
5	881165	172.179395204046	76
5	881563	172.264105589556	76
5	881764	172.281301818856	76
5	881973	172.296385652741	76
5	882248	172.341682185117	76
5	882430	172.346182620214	76
5	882557	172.351365332881	76
5	882783	172.364884199301	76
5	883132	172.415028649046	76
5	883255	172.423145929371	76
5	883437	172.501175889464	76
5	883546	172.516810336591	76
5	883727	172.536519767351	76
5	883995	172.557649641393	76
5	884323	172.630731261707	76
5	884572	172.801597476531	76
5	884684	172.85889795594	76
5	884945	172.977179836203	76
5	885050	172.982685170459	76
5	885142	173.05433237662	76
5	885353	173.069489363122	76
5	885664	173.083193756754	76
5	885861	173.100575438567	76
5	886100	173.193813805417	76
5	886368	173.253829241835	76
5	886668	173.279809560674	76
5	886793	173.311949873647	76
5	886984	173.336439863946	76
5	887167	173.351204057379	76
5	887371	173.375282602974	76
5	887590	173.429601615271	76
5	887892	173.460886481474	76
5	888002	173.468520398336	76
5	888204	173.481493451991	76
5	888338	173.493150905885	76
5	888612	173.506761284397	76
5	888913	173.569824638162	76
5	889220	173.661238081759	76
5	889478	173.743311047479	76
5	889747	173.800308941545	76
5	889972	173.841757362315	76
5	890181	173.874905755355	76
5	890421	173.958346563253	76
5	890753	174.111094531153	76
5	890866	174.118484950796	76
5	891143	174.140357999939	76
5	891267	174.168929969882	76
5	891465	174.194415592183	76
5	891646	174.243069761716	76
5	891848	174.254412224949	76
5	892102	174.29541356745	76
5	892211	174.300366158545	76
5	892584	174.349028755631	76
5	892814	174.409651578907	76
5	892953	174.415201600842	76
5	893205	174.438593493911	76
5	893404	174.491435912529	76
5	893616	174.51734367497	76
5	893799	174.544148460598	76
5	894075	174.584358453346	76
5	894275	174.625527279706	76
5	894528	174.647441553444	76
5	894901	174.77387228639	76
5	895100	174.798712741052	76
5	895312	174.822053872619	76
5	895572	174.844901032615	76
5	895688	174.957802055277	76
5	895934	174.991906750372	76
5	896135	175.074356012277	76
5	896266	175.119535280348	76
5	896371	175.127603341091	76
5	896480	175.158068909803	76
5	896587	175.225698394663	76
5	896694	175.284269581011	76
5	897050	175.304825426106	76
5	897140	175.310010979633	76
5	897349	175.488758026652	76
5	897594	175.55247936771	76
5	897796	175.639067759641	76
5	897987	175.670878492832	76
5	898237	175.688143696059	76
5	898362	175.700402527164	76
5	898546	175.741040686237	76
5	898764	175.765411338484	76
5	898990	175.775948160893	76
5	899106	175.789275362268	76
5	899303	175.828536361191	76
5	899434	175.859777417576	76
5	899625	175.940919296095	76
5	899827	175.967876430488	76
5	899967	175.97507044184	76
5	900076	176.0724136163	76
5	900170	176.102870889809	76
5	900377	176.136027521328	76
5	900563	176.191321075452	76
5	900772	176.267192241109	76
5	900953	176.453566525628	76
5	901146	176.543382546715	76
5	901332	176.783241872779	76
5	901534	176.794700535523	76
5	901808	176.914613831002	76
5	902009	176.929736484713	76
5	902221	176.991260037773	76
5	902407	177.069281224291	76
5	902623	177.13361843557	76
5	902747	177.14119368219	76
5	903042	177.15348911765	76
5	903175	177.158508683096	76
5	903370	177.181299095915	76
5	903563	177.200656656158	76
5	903814	177.282112068769	76
5	904026	177.309466352043	76
5	904212	177.352881274986	76
5	904498	177.373916301342	76
5	904684	177.404069548692	76
5	904815	177.444908446996	76
5	905017	177.458905498433	76
5	905243	177.471581102244	76
5	905440	177.487710495544	76
5	905572	177.632479604292	76
5	905826	177.718381903398	76
5	906028	177.72950210207	76
5	906313	177.776922216263	76
5	906423	177.840172834102	76
5	906604	177.858802228972	76
5	906801	177.871986498628	76
5	907052	177.888990262443	76
5	907164	177.948794010432	76
5	907300	177.959065057231	76
5	907463	177.967478229759	76
5	907579	178.009187004879	76
5	907770	178.045492413185	76
5	907956	178.061623061728	76
5	908155	178.091346011068	76
5	908286	178.112133865316	76
5	908477	178.130609525609	76
5	908586	178.149642114512	76
5	908767	178.175611875576	76
5	908896	178.182291965747	76
5	909025	178.223188105716	76
5	909199	178.23117719617	76
5	909296	178.27026477532	76
5	909519	178.281608496917	76
5	909664	178.287279413785	76
5	909815	178.295395290893	76
5	910051	178.309235926482	76
5	910260	178.338317667649	76
5	910374	178.391828745041	76
5	910463	178.399271179972	76
5	910655	178.444032777961	76
5	910832	178.453428757039	76
5	910946	178.50636032021	76
5	911143	178.549918715519	76
5	911253	178.557140481954	76
5	911548	178.62388573011	76
5	911688	178.630231707699	76
5	911804	178.734348525283	76
5	911898	178.75518583584	76
5	912172	178.791769621476	76
5	912381	178.80885184055	76
5	912574	178.856014127893	76
5	912823	178.965533495123	76
5	912956	178.995729790585	76
5	913208	179.012869188082	76
5	913417	179.056667185337	76
5	913526	179.104991004051	76
5	913633	179.174277873904	76
5	913905	179.223164644775	76
5	914122	179.240063440736	76
5	914329	179.278854004428	76
5	914511	179.323547006508	76
5	914684	179.333209949982	76
5	914867	179.34549962568	76
5	914990	179.351862908928	76
5	915105	179.390743323	76
5	915274	179.414686783144	76
5	915438	179.423194409547	76
5	915641	179.499533379947	76
5	915784	179.508578956885	76
5	916136	179.530855314296	76
5	916430	179.54074484994	76
5	916579	179.545609517068	76
5	916728	179.553522161105	76
5	916975	179.617234323597	76
5	917195	179.62876560107	76
5	917321	179.661621189637	76
5	917502	179.680024840681	76
5	917627	179.74478663079	76
5	917740	179.761922416425	76
5	917853	179.845923062404	76
5	917960	179.908541870784	76
5	918215	179.943870300246	76
5	918465	179.958469665733	76
5	918811	180.004863831225	76
5	919049	180.019834273689	76
5	919248	180.033622465975	76
5	919379	180.064127934735	76
5	919476	180.071032931691	76
5	919667	180.079922981692	76
5	919912	180.157990898214	76
5	920125	180.205263428782	76
5	920234	180.213510872095	76
5	920449	180.245816508452	76
5	920622	180.288370524737	76
5	920943	180.316758311862	76
5	921102	180.3242293819	76
5	921254	180.330518344304	76
5	921530	180.513546825413	76
5	921816	180.53567326792	76
5	922000	180.577643615843	76
5	922298	180.592538835101	76
5	922440	180.597375582754	76
5	922642	180.673638175369	76
5	922916	180.724185276846	76
5	923154	180.756672236083	76
5	923342	180.767166068752	76
5	923649	180.84918805306	76
5	923783	180.859451458071	76
5	923982	180.938195694678	76
5	924181	180.975477058296	76
5	924380	180.994871897727	76
5	924577	181.072695287625	76
5	924773	181.091833811013	76
5	924954	181.10545499691	76
5	925207	181.13408120968	76
5	925415	181.166985086385	76
5	925520	181.184904919742	76
5	925822	181.21210794989	76
5	926000	181.222018004066	76
5	926405	181.328800404939	76
5	926609	181.341146889913	76
5	926725	181.368484969192	76
5	926907	181.401790490481	76
5	927084	181.441881525803	76
5	927357	181.465088269021	76
5	927464	181.471821443752	76
5	927663	181.505285190907	76
5	927865	181.534589913545	76
5	928151	181.560547333874	76
5	928337	181.627539878011	76
5	928462	181.647101867412	76
5	928569	181.67309382127	76
5	929170	181.778601790348	76
5	929318	181.783803116224	76
5	929493	181.865952863029	76
5	929777	181.888195920699	76
5	929868	181.892973566531	76
5	930045	181.916593437821	76
5	930158	181.932317622824	76
5	930476	181.984865893363	76
5	930682	181.996048143789	76
5	930884	182.035501219227	76
5	931185	182.04721807554	76
5	931341	182.053374603156	76
5	931482	182.0610817765	76
5	931825	182.079511601459	76
5	932070	182.124064571201	76
5	932591	182.211006032497	76
5	932766	182.218423075838	76
5	933076	182.293342741851	76
5	933280	182.297887408979	76
5	933451	182.302593708826	76
5	933630	182.309441880883	76
5	933815	182.356777836433	76
5	933992	182.423989340583	76
5	934272	182.449282965062	76
5	934361	182.454479536965	76
5	934666	182.474344906678	76
5	934775	182.482595692259	76
5	934887	182.566724117874	76
5	935152	182.585118460058	76
5	935298	182.595084516314	76
5	935646	182.62956184128	76
5	936007	182.691967182401	76
5	936137	182.699099874584	76
5	936521	182.822308100996	76
5	936997	182.852106001512	76
5	937108	182.858288224337	76
5	937361	183.037546440804	76
5	937557	183.049458836678	76
5	937756	183.123884379693	76
5	938025	183.179881243611	76
5	938208	183.203002203309	76
5	938453	183.35412752005	76
5	938566	183.384801525416	76
5	938673	183.432063183663	76
5	938854	183.446012412928	76
5	939132	183.491392358377	76
5	939386	183.511356195475	76
5	939575	183.587266427458	76
5	939695	183.591732504646	76
5	939863	183.647165161961	76
5	939986	183.668944650666	76
5	940079	183.679166799432	76
5	940190	183.692585759152	76
5	940388	183.703858991532	76
5	940485	183.709985417245	76
5	940677	183.719718760725	76
5	940822	183.829350523469	76
5	941089	183.891815839082	76
5	941343	183.919088139356	76
5	941587	183.945787048967	76
5	941854	183.964919103902	76
5	941958	183.970742058235	76
5	942144	183.998644162009	76
5	942316	184.006111486855	76
5	942436	184.014266541736	76
5	942619	184.023512279311	76
5	942813	184.048150404974	76
5	943043	184.136094409536	76
5	943240	184.16147935998	76
5	943421	184.183795753482	76
5	943534	184.188604705178	76
5	943712	184.212672743604	76
5	944003	184.293331539828	76
5	944211	184.333292327916	76
5	944367	184.354655824481	76
5	944598	184.507302914138	76
5	944712	184.528037211222	76
5	944899	184.544680159419	76
5	945080	184.583051785084	76
5	945174	184.588153329796	76
5	945286	184.600777229127	76
5	945416	184.650725723249	76
5	945562	184.686355355083	76
5	945838	184.779855149644	76
5	946056	184.814165680432	76
5	946174	184.819737442254	76
5	946323	184.881687341711	76
5	946491	184.88678346227	76
5	946614	184.893161810088	76
5	947053	185.046996264819	76
5	947185	185.232518426847	76
5	947275	185.323120271857	76
5	947398	185.347816587014	76
5	947580	185.393317231169	76
5	947676	185.454065836007	76
5	947883	185.478252411299	76
5	947977	185.485913385507	76
5	948176	185.510020199009	76
5	948378	185.52204239062	76
5	948587	185.573420344414	76
5	948770	185.618326517401	76
5	948979	185.639135574651	76
5	949162	185.659690015715	76
5	949287	185.689435192204	76
5	949468	185.770824505532	76
5	949735	185.810781408024	76
5	949934	185.822473100494	76
5	950136	185.846581191743	76
5	950345	185.87391669939	76
5	950531	185.889604817885	76
5	950806	185.945817463808	76
5	951013	185.981129422748	76
5	951175	185.991068109182	76
5	951431	186.004010206925	76
5	951649	186.018067734946	76
5	951778	186.02587694193	76
5	951971	186.046387522781	76
5	952152	186.107225950024	76
5	952345	186.121471158136	76
5	952454	186.148005114079	76
5	952635	186.164622666026	76
5	952905	186.251400457733	76
5	953195	186.303728836221	76
5	953463	186.316805950194	76
5	953560	186.39509986739	76
5	953891	186.444555863579	76
5	953997	186.449766119201	76
5	954105	186.454819807937	76
5	954308	186.4703792921	76
5	954420	186.536821481718	76
5	954685	186.57038652785	76
5	954884	186.584364797007	76
5	955067	186.592443369602	76
5	955297	186.599624753772	76
5	955423	186.605460034589	76
5	955539	186.628173967937	76
5	955720	186.69904451476	76
5	955832	186.712820609688	76
5	956035	186.744146511688	76
5	956142	186.750931178816	76
5	956342	186.791380509857	76
5	956600	186.802785865966	76
5	956922	186.81451531054	76
5	957174	186.831356602467	76
5	957374	186.866867894289	76
5	957468	186.874420252609	76
5	957688	186.949224695009	76
5	957837	186.958819079077	76
5	958095	187.058164507687	76
5	958309	187.278965454111	76
5	958495	187.316043358902	76
5	958615	187.321816907532	76
5	958798	187.357069640868	76
5	959008	187.366964973839	76
5	959119	187.383233101306	76
5	959213	187.411054949967	76
5	959323	187.458650790895	76
5	959452	187.533846141563	76
5	959704	187.555190910483	76
5	959835	187.580087347115	76
5	960026	187.6001582595	76
5	960236	187.66572571597	76
5	960505	187.686258587291	76
5	960628	187.691970932384	76
5	960814	187.72387737501	76
5	961016	187.770484198623	76
5	961218	187.790604957083	76
5	961513	187.841209210688	76
5	961754	187.856052289569	76
5	961972	187.867650306131	76
5	962171	187.891181832038	76
5	962302	188.037058741962	76
5	962483	188.047634035973	76
5	962614	188.120545051794	76
5	962719	188.127148597655	76
5	962900	188.141271626316	76
5	963174	188.161797317572	76
5	963314	188.169788600425	76
5	963497	188.180982186272	76
5	963696	188.192851393763	76
5	963895	188.266761586997	76
5	964018	188.276700676095	76
5	964238	188.298812541493	76
5	964434	188.309971370833	76
5	964584	188.322729905126	76
5	964746	188.328047079049	76
5	964968	188.341990039546	76
5	965093	188.377759118937	76
5	965373	188.485426063388	76
5	965523	188.491400511648	76
5	965716	188.502884230998	76
5	965912	188.584352324291	76
5	966096	188.69800789834	76
5	966205	188.761986489793	76
5	966389	188.78378716937	76
5	966588	188.835177306115	76
5	966967	188.854709238261	76
5	967108	188.860889704303	76
5	967361	188.995565324372	76
5	967565	189.136151280631	76
5	967774	189.159534433385	76
5	967894	189.165570068465	76
5	968087	189.226356767418	76
5	968444	189.2745691234	76
5	968551	189.281033790528	76
5	968750	189.422712384746	76
5	968959	189.44150024655	76
5	969055	189.454547391656	76
5	969319	189.52594540125	76
5	969596	189.59044742103	76
5	969793	189.787966589435	76
5	970071	189.801576702684	76
5	970305	189.813061098577	76
5	970673	189.973158020325	76
5	970781	189.981039907903	76
5	970955	190.017315458451	76
5	971233	190.053399882954	76
5	971512	190.078534226432	76
5	971766	190.130162956897	76
5	972096	190.156888867936	76
5	972296	190.219341242724	76
5	972498	190.241034758066	76
5	972894	190.261213806173	76
5	973264	190.373249561233	76
5	973398	190.383021802074	76
5	973596	190.412742808925	76
5	973692	190.418302892051	76
5	973926	190.426702129557	76
5	974052	190.448939053566	76
5	974315	190.507406701977	76
5	974574	190.558709065448	76
5	974757	190.611831677656	76
5	974966	190.666911138304	76
5	975292	190.691407519921	76
5	975526	190.696783083478	76
5	975704	190.70206306182	76
5	975876	190.708755606727	76
5	976084	190.722215029817	76
5	976281	190.785287815151	76
5	976465	190.808146937865	76
5	976750	190.824305216379	76
5	977011	190.831849215629	76
5	977122	190.840897207364	76
5	977322	190.869459714096	76
5	977429	190.876272503727	76
5	977538	190.897289384454	76
5	977806	190.919309924819	76
5	978138	191.020766353753	76
5	978376	191.04983312272	76
5	978678	191.113549618813	76
5	978828	191.121327182857	76
5	979028	191.140913319387	76
5	979246	191.15567744609	76
5	979495	191.208997681884	76
5	979686	191.241182072864	76
5	979875	191.265434466846	76
5	980080	191.299268561192	76
5	980379	191.31044745918	76
5	980631	191.32105595779	76
5	980830	191.34230578395	76
5	980934	191.348048025428	76
5	981189	191.414020053201	76
5	981459	191.434110969239	76
5	981793	191.468436883913	76
5	982000	191.483043301669	76
5	982229	191.648598685956	76
5	982351	191.654395160198	76
5	982606	191.684926778993	76
5	982765	191.691291219594	76
5	982909	191.700440288294	76
5	983018	191.707704354576	76
5	983130	191.764090975432	76
5	983446	191.847551151319	76
5	983709	191.885149899985	76
5	983819	191.891935234241	76
5	983934	191.911171571718	76
5	984287	191.979837993658	76
5	984412	192.001741542792	76
5	984778	192.069302988384	76
5	984887	192.077956259217	76
5	985018	192.117314885743	76
5	985131	192.128119717308	76
5	985313	192.163904998832	76
5	985496	192.186794170234	76
5	985693	192.224402638172	76
5	986045	192.242313891505	76
5	986208	192.252472032878	76
5	986450	192.258351031622	76
5	986577	192.264177733312	76
5	986713	192.269389137478	76
5	986933	192.279396786505	76
5	987150	192.292153287129	76
5	987275	192.301387547218	76
5	987507	192.460949945046	76
5	987616	192.466581688195	76
5	987857	192.488287003344	76
5	987982	192.492932241505	76
5	988074	192.523545354685	76
5	988196	192.53371398409	76
5	988381	192.561647643407	76
5	988741	192.705014453405	76
5	988879	192.714675050712	76
5	989060	192.731421332606	76
5	989154	192.73886863547	76
5	989400	192.82230312184	76
5	989659	192.931101980685	76
5	989779	192.962159995017	76
5	989887	192.967312243787	76
5	990080	193.003069434955	76
5	990263	193.018901142807	76
5	990545	193.04576560982	76
5	990876	193.102083086665	76
5	991001	193.133222137129	76
5	991192	193.196442095561	76
5	991447	193.226841255035	76
5	991764	193.313947089583	76
5	992137	193.355967156793	76
5	992262	193.366096500367	76
5	992460	193.396422700801	76
5	992591	193.416785405846	76
5	992896	193.470473241059	76
5	993229	193.535927318861	76
5	993494	193.598620392966	76
5	993680	193.610726988529	76
5	994047	193.63413816464	76
5	994174	193.639807756318	76
5	994435	193.689510251951	76
5	994635	193.702797711844	76
5	994834	193.723904112191	76
5	994963	193.732907261993	76
5	995233	193.746663143025	76
5	995336	193.751853346137	76
5	995453	193.778564344219	76
5	995720	193.856164831288	76
5	995991	193.902074381429	76
5	996105	193.940710574705	76
5	996312	194.182986766521	76
5	996566	194.217719210934	76
5	996690	194.228101560492	76
5	996875	194.276628348071	76
5	997155	194.353409540522	76
5	997335	194.370274457309	76
5	997544	194.382397812403	76
5	997737	194.442306639982	76
5	997967	194.507086093588	76
5	998331	194.530016255664	76
5	998555	194.536784846447	76
5	998774	194.547762805087	76
5	999121	194.591881980731	76
5	999451	194.654527055682	76
5	999721	194.719695202671	76
5	999831	194.815694216624	76
5	1000038	194.86910618486	76
5	1000236	194.913489403431	76
5	1000464	194.971274663265	76
5	1000729	195.085732052898	76
5	1000928	195.103803935013	76
5	1001114	195.18513553349	76
5	1001316	195.27570514336	76
5	1001692	195.290258718415	76
5	1001800	195.298101566376	76
5	1001925	195.308938645944	76
5	1002119	195.332048362449	76
5	1002379	195.358045475559	76
5	1002588	195.396757563182	76
5	1002781	195.408455148932	76
5	1002893	195.416058568717	76
5	1003114	195.429458039036	76
5	1003313	195.444875431471	76
5	1003580	195.486302479763	76
5	1003705	195.546720402927	76
5	1003889	195.665062763445	76
5	1004088	195.744674962002	76
5	1004300	195.781619066003	76
5	1004409	195.839368548202	76
5	1004590	195.877966171495	76
5	1004789	195.959497140516	76
5	1004916	196.044655752242	76
5	1005114	196.05124257103	76
5	1005274	196.06066542503	76
5	1005561	196.106956570825	76
5	1005744	196.140264341009	76
5	1005953	196.162550888251	76
5	1006134	196.212615478369	76
5	1006315	196.235253049577	76
5	1006613	196.251658854025	76
5	1006757	196.257933350654	76
5	1007073	196.318532974497	76
5	1007254	196.365833766969	76
5	1007514	196.406596157219	76
5	1007639	196.45986940269	76
5	1007907	196.483659819443	76
5	1008090	196.514349100987	76
5	1008365	196.588053487431	76
5	1008568	196.744696925506	76
5	1008767	196.881785965156	76
5	1008969	196.913464386953	76
5	1009237	196.981361718601	76
5	1009367	197.023084334498	76
5	1009677	197.038541108742	76
5	1009861	197.04605358659	76
5	1010101	197.055813527605	76
5	1010337	197.067859762671	76
5	1010681	197.078197680678	76
5	1010885	197.084653274646	76
5	1011050	197.093022149805	76
5	1011213	197.102501788401	76
5	1011359	197.21373537244	76
5	1011533	197.221223540648	76
5	1011717	197.356268002885	76
5	1011924	197.376603407363	76
5	1012106	197.423653493804	76
5	1012392	197.457364458543	76
5	1012573	197.515899938826	76
5	1012669	197.601718326651	76
5	1012952	197.642044320413	76
5	1013136	197.736303704889	76
5	1013335	197.75633133072	76
5	1013548	197.795361352766	76
5	1013809	197.806831407118	76
5	1014106	197.828855910888	76
5	1014215	197.833721245144	76
5	1014406	197.885547180178	76
5	1014595	197.911814695508	76
5	1014788	197.935188642082	76
5	1014971	198.052351272657	76
5	1015168	198.099373211574	76
5	1015286	198.118379973957	76
5	1015467	198.129063646109	76
5	1015593	198.13574860533	76
5	1015793	198.14691995253	76
5	1015945	198.153852438957	76
5	1016146	198.169370239784	76
5	1016343	198.187740470317	76
5	1016458	198.248363770567	76
[...]
850	1605305	305.377561715548	0.98360655737705
850	1605423	305.388027050097	1
850	1612545	306.820096891944	0.98387096774194
850	1612663	306.830242226493	1
850	1637562	311.966111287115	0.98412698412698
850	1637680	311.975616621664	1
850	1643099	313.027280647984	0.984375
850	1643235	313.037425982533	1
850	1666100	317.21314791281	0.98461538461538
850	1666218	317.224253247359	1
850	1667108	317.370925391546	0.98484848484848
850	1667226	317.379470726095	1
850	1671820	318.329704597234	0.98507462686567
850	1671938	318.341129931783	1
850	1688534	321.386517995829	0.98529411764706
850	1688663	321.398903330378	1
850	1693039	322.325409565153	0.98550724637681
850	1693244	322.336514899702	1
850	1695163	322.676674767146	0.98571428571429
850	1695281	322.688420101695	1
850	1706959	324.632398085533	0.98591549295775
850	1707094	324.642543420082	1
850	1716082	325.965806538189	0.98611111111111
850	1716202	325.977551872738	1
850	1718007	326.363664932811	0.98630136986301
850	1718125	326.37637026736	1
850	1723681	327.628220840485	0.98648648648649
850	1723821	327.637406175034	1
850	1726234	328.41013762348	0.98666666666667
850	1726352	328.422842958029	1
850	1733201	329.246572632266	0.98684210526316
850	1733321	329.257997966815	1
850	1734809	329.526040509721	0.98701298701299
850	1735141	329.54106584427	1
850	1771177	335.863333943909	0.98717948717949
850	1771410	335.873159278458	1
850	1787190	338.716155117566	0.9873417721519
850	1787310	338.725660452115	1
850	1791130	339.585666436905	0.9875
850	1791359	339.597091771454	1
850	1808418	342.67186665013	0.98765432098765
850	1808537	342.684251984679	1
850	1822934	345.193718258033	0.98780487804878
850	1823052	345.205143592582	1
850	1843427	349.491313204337	0.98795180722892
850	1843545	349.504018538886	1
850	1845188	349.94611715232	0.98809523809524
850	1845405	349.954982486869	1
850	1861804	352.915625008065	0.98823529411765
850	1861922	352.926090342614	1
850	1866341	353.781999681388	0.98837209302326
850	1866459	353.792785015937	1
850	1872036	354.606431409126	0.98850574712644
850	1872158	354.618496743675	1
850	1875627	355.373968134781	0.98863636363636
850	1875915	355.38616146933	1
850	1875985	355.400580363568	0.98876404494382
850	1876215	355.414821698117	1
850	1902930	360.389342999239	0.98888888888889
850	1903170	360.399488333788	1
850	1907395	360.961848684479	0.98901098901099
850	1907515	360.974554019028	1
850	1914648	362.187025621568	0.98913043478261
850	1914868	362.198450956117	1
850	1921111	363.092698639246	0.98924731182796
850	1921229	363.102843973795	1
850	1922090	363.266163443745	0.98936170212766
850	1922208	363.278548778294	1
850	1938976	366.695223274663	0.98947368421053
850	1939406	366.717096609212	1
850	1939582	366.947201238289	0.98958333333333
850	1939700	366.957026572838	1
850	1957503	370.744670387126	0.98969072164948
850	1957621	370.754815721675	1
850	1970319	373.068939358024	0.98979591836735
850	1970437	373.079724692573	1
850	1971374	373.397518660624	0.98989898989899
850	1971566	373.406703995173	1
850	1973523	373.575299979759	0.99
850	1973883	373.594341314308	1
860	840489	163.878520966797	76
860	842816	164.292791595995	76
860	845082	164.750535350639	76
860	848540	165.357364532189	76
860	850000	165.63439612879	76
860	853059	166.213908279716	76
860	866138	169.527391651478	76
860	880981	172.164385821682	76
860	897411	175.538429985346	76
860	909777	178.292306544118	76
860	915760	179.507575467576	76
860	931545	182.064182219095	76
860	936623	182.837118841973	76
860	954500	186.551537145486	76
860	969135	189.510936018886	76
860	969874	189.789971716213	76
860	981607	191.449267501549	76
860	1003395	195.469373097399	76
860	1009775	197.040164145241	76
860	1025582	200.251343771012	76
860	1026237	200.381442984411	76
860	1027186	200.502984331439	76
860	1055886	204.798978827749	76
860	1071151	207.628248159704	76
860	1073077	207.881649805442	76
860	1080750	209.715068692551	76
860	1095396	212.313594893462	76
860	1114230	215.276768331353	76
860	1122587	216.586670266986	76
860	1126393	217.319739695145	76
860	1129211	217.563897997879	76
860	1145413	220.622591807439	76
860	1157308	222.987064217101	76
860	1160108	223.379259843095	76
860	1169192	225.297143020559	76
860	1219092	234.26378015082	76
860	1239130	238.492120491794	76
860	1242448	239.602844629509	76
860	1254302	241.397973107646	76
860	1262661	243.058941952601	76
860	1274882	245.243919927889	76
860	1284079	247.289258841192	76
860	1293360	249.002735722781	76
860	1306915	251.307097309561	76
860	1309148	251.777412991584	76
860	1323099	254.09228498807	76
860	1334194	255.840435981307	76
860	1366638	261.559711404023	76
860	1377108	262.970458607566	76
860	1389220	265.638819985697	76
860	1429442	273.092454952041	76
860	1429712	273.146141341724	76
860	1456691	278.458894227805	76
860	1465307	280.363671396366	76
860	1473392	281.417116654257	76
860	1475387	281.710025740643	76
860	1480897	283.13969222561	76
860	1494768	285.509126309191	76
860	1516253	290.339455396972	76
860	1519711	291.009666283173	76
860	1563803	298.096718249006	76
860	1567396	298.747775784152	76
860	1569327	298.949859739924	76
860	1581100	301.056717037166	76
860	1581933	301.118463229318	76
860	1613321	306.988034547934	76
860	1626654	309.872793656222	76
860	1635937	311.70701175661	76
860	1661365	316.539977980619	76
860	1663008	316.835390211516	76
860	1677111	319.283689400352	76
860	1677614	319.389113175886	76
860	1677881	319.448607294522	76
860	1689251	321.587037768018	76
860	1711359	325.381888297103	76
860	1715500	325.910667767387	76
860	1721676	327.220560343011	76
860	1737435	330.049882930627	76
860	1751919	332.246450019542	76
860	1826023	345.696816137881	76
860	1832972	347.181058544743	76
860	1839322	348.537753238251	76
860	1850842	350.769654313666	76
860	1862694	353.080745606229	76
860	1875543	355.368093214154	76
860	1994251	377.840719324865	76
860	1997072	378.114574060343	76
860	2016285	381.508203212628	76
860	2018241	381.738409061786	76
860	2020927	382.077523129912	76
860	2039905	384.733039946039	76
860	2056704	388.827951102653	76
860	2058756	389.278066910234	76
860	2064267	390.527786402283	76
860	2066546	390.900703019983	76
860	2091778	395.303743092685	76
860	2094191	395.663033097288	76
860	2109703	398.877142404433	76
860	2129268	402.551912024282	76
860	2153085	406.083054053238	76
862	840773	163.894490349161	76
862	843171	164.310680978359	76
862	845379	164.772024733003	76
862	848725	165.376533914553	76
862	850448	165.651005511154	76
862	853242	166.22891766208	76
862	866561	169.552081033842	76
862	881165	172.179395204046	76
862	897594	175.55247936771	76
862	910051	178.309235926482	76
862	916579	179.545609517068	76
862	931825	182.079511601459	76
862	937108	182.858288224337	76
862	954685	186.57038652785	76
862	969319	189.52594540125	76
862	970305	189.813061098577	76
862	981793	191.468436883913	76
862	1003580	195.486302479763	76
862	1010101	197.055813527605	76
862	1025812	200.265393153376	76
862	1026606	200.397092366775	76
862	1028145	200.537433713803	76
862	1056170	204.816548210113	76
862	1071595	207.645177542068	76
862	1073262	207.899859187806	76
862	1080935	209.732638074915	76
862	1095796	212.335724275826	76
862	1114415	215.292097713717	76
862	1122879	216.60231964935	76
862	1126787	217.336669077509	76
862	1129701	217.586987380243	76
862	1145931	220.645361189803	76
862	1157493	223.003033599465	76
862	1160309	223.396829225459	76
862	1169377	225.312792402923	76
862	1219514	234.286229533184	76
862	1239317	238.508409874158	76
862	1242631	239.617214011873	76
862	1254687	241.41887049001	76
862	1263093	243.076191334965	76
862	1275067	245.262449310253	76
862	1284548	247.309468223556	76
862	1293547	249.019665105145	76
862	1307101	251.320826691925	76
862	1309333	251.793062373948	76
862	1323421	254.115054370434	76
862	1334379	255.856725363671	76
862	1367311	261.593200786387	76
862	1377296	262.98866798993	76
862	1389550	265.656709368061	76
862	1429627	273.110984334405	76
862	1430117	273.164750724088	76
862	1456875	278.473903610169	76
862	1465667	280.38124077873	76
862	1473943	281.434366036621	76
862	1475572	281.725675123007	76
862	1481240	283.156621607974	76
862	1494972	285.527335691555	76
862	1516444	290.355744779336	76
862	1520112	291.029875665537	76
862	1563988	298.11172763137	76
862	1567614	298.765665166516	76
862	1569566	298.968069122288	76
862	1581387	301.07588641953	76
862	1582589	301.142192611682	76
862	1613504	307.003683930298	76
862	1626839	309.891003038586	76
862	1636265	311.725349138974	76
862	1661550	316.555947362983	76
862	1663329	316.85687959388	76
862	1677531	319.302618782716	76
862	1677799	319.40668255825	76
862	1678168	319.466816676886	76
862	1689809	321.609023150382	76
862	1711549	325.397857679467	76
862	1715683	325.924397149751	76
862	1721973	327.244594392503	76
862	1738109	330.072012312991	76
862	1752384	332.274739401906	76
862	1826443	345.717345520245	76
862	1833458	347.202227927107	76
862	1839507	348.555002620615	76
862	1851118	350.78562369603	76
862	1863040	353.098314988593	76
862	1875779	355.381822596518	76
862	1994450	377.858608707229	76
862	1997256	378.130543442707	76
862	2016470	381.524492594992	76
862	2018569	381.76021844415	76
862	2021110	382.091572512276	76
862	2040090	384.749329328403	76
862	2056889	388.844560485017	76
862	2059168	389.307316292598	76
862	2064452	390.545035784647	76
862	2066737	390.916992402347	76
862	2092291	395.321632475049	76
862	2095018	395.692763872952	76
862	2109984	398.894071786797	76
862	2129670	402.573401406646	76
862	2153363	406.098703435602	76
863	62	1	76
863	247	3.52712867845	76
863	273	4.11675747222	76
863	392	5.922499440177	76
863	470	7.819201684859	76
863	27294	14.922666653044	76
863	43572	18.58705556044	76
863	44219	18.6552363443	76
863	48367	19.430325071257	76
863	49481	19.58378407313	76
863	63699	22.353196170207	76
863	76820	24.626483261049	76
863	79661	24.992268076758	76
863	83895	25.785284255432	76
863	85381	26.074207304184	76
863	91184	27.060454884427	76
863	127710	33.728588235185	76
863	131672	34.623012350652	76
863	162273	39.839214851095	76
863	166152	40.456501667265	76
863	211808	48.347793092925	76
863	217692	49.541945287798	76
863	222775	50.251200752991	76
863	240071	53.33444487112	76
863	246938	54.417702714535	76
863	265927	57.857443401314	76
863	278489	60.234960086525	76
863	281750	60.529706193709	76
863	290107	61.938121163696	76
863	303366	64.218613205859	76
863	350644	71.794567810881	76
863	357642	72.744948404878	76
863	362978	73.798399652556	76
863	373790	75.927310049478	76
863	381175	77.427481976523	76
863	394408	79.926861572398	76
863	413465	83.03633860865	76
863	418700	83.829845776202	76
863	421921	84.383114472303	76
863	426434	84.999210594829	76
863	457748	91.592602227462	76
863	480594	96.082348035718	76
863	492597	99.060702870058	76
863	492864	99.1040347758	76
863	513685	103.38923503437	76
863	514366	103.512586606742	76
863	519786	104.546350532925	76
863	524870	105.468322543481	76
863	526104	105.762617900736	76
863	543791	109.135322890792	76
863	552365	110.596824411892	76
863	552970	110.673069070768	76
863	555965	111.220868915721	76
863	562962	112.3201132733	76
863	572338	113.813209896594	76
863	580210	115.056645804354	76
863	590105	117.117946696515	76
863	591897	117.523223102842	76
863	619442	123.108503082654	76
863	630710	125.012609808823	76
863	631859	125.17384659082	76
863	642477	127.433143533264	76
863	683972	135.116514317749	76
863	698508	137.917572497057	76
863	738098	145.641025009363	76
863	746467	147.372400077928	76
863	754101	148.732450672576	76
863	771611	151.950505552202	76
863	792155	155.729123477719	76
863	814135	159.894207941249	76
863	2156339	406.717500939565	76
863	2168585	409.524783054747	76
863	2170494	409.852535962626	76
863	2206338	415.917101109717	76
863	2206449	415.927913056124	76
863	2212798	417.226891396773	76
863	2222123	419.061537880855	76
863	2230263	420.524407897108	76
863	2241654	422.321749784245	76
863	2245342	422.838592855832	76
863	2246310	422.977870458327	76
863	2250659	423.607124984393	76
863	2266884	426.254893379196	76
863	2270155	426.926317986211	76
863	2306572	432.830860626142	76
863	2313283	434.108461167434	76
863	2336175	437.985003016467	76
863	2337611	438.311726748677	76
863	2341463	438.987411107275	76
863	2342008	439.091905093751	76
863	2346081	439.801347239599	76
863	2348209	440.169424493444	76
863	2351558	440.774940198329	76
863	2414949	452.209144806995	76
863	2446373	458.729043425023	76
863	2471342	463.201155459423	76
863	2473686	463.849770644165	76
863	2482336	465.253625276336	76
863	2485779	465.707582717765	76
863	2493552	467.58318756695	76
863	2493708	467.591883053718	76
863	2530451	474.16368196959	76
863	2537217	475.266449680497	76
864	840489	163.878520966797	-nan
864	840773	163.894490349161	1
864	842816	164.292791595995	0.5
864	843171	164.310680978359	1
864	845082	164.750535350639	0.66666666666667
864	845379	164.772024733003	1
864	848540	165.357364532189	0.75
864	848725	165.376533914553	1
864	850000	165.63439612879	0.8
864	850448	165.651005511154	1
864	853059	166.213908279716	0.83333333333333
864	853242	166.22891766208	1
864	866138	169.527391651478	0.85714285714286
864	866561	169.552081033842	1
864	880981	172.164385821682	0.875
864	881165	172.179395204046	1
864	897411	175.538429985346	0.88888888888889
864	897594	175.55247936771	1
864	909777	178.292306544118	0.9
864	910051	178.309235926482	1
864	915760	179.507575467576	0.90909090909091
864	916579	179.545609517068	1
864	931545	182.064182219095	0.91666666666667
864	931825	182.079511601459	1
864	936623	182.837118841973	0.92307692307692
864	937108	182.858288224337	1
864	954500	186.551537145486	0.92857142857143
864	954685	186.57038652785	1
864	969135	189.510936018886	0.93333333333333
864	969319	189.52594540125	1
864	969874	189.789971716213	0.9375
864	970305	189.813061098577	1
864	981607	191.449267501549	0.94117647058824
864	981793	191.468436883913	1
864	1003395	195.469373097399	0.94444444444444
864	1003580	195.486302479763	1
864	1009775	197.040164145241	0.94736842105263
864	1010101	197.055813527605	1
864	1025582	200.251343771012	0.95
864	1025812	200.265393153376	1
864	1026237	200.381442984411	0.95238095238095
864	1026606	200.397092366775	1
864	1027186	200.502984331439	0.95454545454545
864	1028145	200.537433713803	1
864	1055886	204.798978827749	0.95652173913043
864	1056170	204.816548210113	1
864	1071151	207.628248159704	0.95833333333333
864	1071595	207.645177542068	1
864	1073077	207.881649805442	0.96
864	1073262	207.899859187806	1
864	1080750	209.715068692551	0.96153846153846
864	1080935	209.732638074915	1
864	1095396	212.313594893462	0.96296296296296
864	1095796	212.335724275826	1
864	1114230	215.276768331353	0.96428571428571
864	1114415	215.292097713717	1
864	1122587	216.586670266986	0.96551724137931
864	1122879	216.60231964935	1
864	1126393	217.319739695145	0.96666666666667
864	1126787	217.336669077509	1
864	1129211	217.563897997879	0.96774193548387
864	1129701	217.586987380243	1
864	1145413	220.622591807439	0.96875
864	1145931	220.645361189803	1
864	1157308	222.987064217101	0.96969696969697
864	1157493	223.003033599465	1
864	1160108	223.379259843095	0.97058823529412
864	1160309	223.396829225459	1
864	1169192	225.297143020559	0.97142857142857
864	1169377	225.312792402923	1
864	1219092	234.26378015082	0.97222222222222
864	1219514	234.286229533184	1
864	1239130	238.492120491794	0.97297297297297
864	1239317	238.508409874158	1
864	1242448	239.602844629509	0.97368421052632
864	1242631	239.617214011873	1
864	1254302	241.397973107646	0.97435897435897
864	1254687	241.41887049001	1
864	1262661	243.058941952601	0.975
864	1263093	243.076191334965	1
864	1274882	245.243919927889	0.97560975609756
864	1275067	245.262449310253	1
864	1284079	247.289258841192	0.97619047619048
864	1284548	247.309468223556	1
864	1293360	249.002735722781	0.97674418604651
864	1293547	249.019665105145	1
864	1306915	251.307097309561	0.97727272727273
864	1307101	251.320826691925	1
864	1309148	251.777412991584	0.97777777777778
864	1309333	251.793062373948	1
864	1323099	254.09228498807	0.97826086956522
864	1323421	254.115054370434	1
864	1334194	255.840435981307	0.97872340425532
864	1334379	255.856725363671	1
864	1366638	261.559711404023	0.97916666666667
864	1367311	261.593200786387	1
864	1377108	262.970458607566	0.97959183673469
864	1377296	262.98866798993	1
864	1389220	265.638819985697	0.98
864	1389550	265.656709368061	1
864	1429442	273.092454952041	0.98039215686275
864	1429627	273.110984334405	1
864	1429712	273.146141341724	0.98076923076923
864	1430117	273.164750724088	1
864	1456691	278.458894227805	0.9811320754717
864	1456875	278.473903610169	1
864	1465307	280.363671396366	0.98148148148148
864	1465667	280.38124077873	1
864	1473392	281.417116654257	0.98181818181818
864	1473943	281.434366036621	1
864	1475387	281.710025740643	0.98214285714286
864	1475572	281.725675123007	1
864	1480897	283.13969222561	0.98245614035088
864	1481240	283.156621607974	1
864	1494768	285.509126309191	0.98275862068966
864	1494972	285.527335691555	1
864	1516253	290.339455396972	0.98305084745763
864	1516444	290.355744779336	1
864	1519711	291.009666283173	0.98333333333333
864	1520112	291.029875665537	1
864	1563803	298.096718249006	0.98360655737705
864	1563988	298.11172763137	1
864	1567396	298.747775784152	0.98387096774194
864	1567614	298.765665166516	1
864	1569327	298.949859739924	0.98412698412698
864	1569566	298.968069122288	1
864	1581100	301.056717037166	0.984375
864	1581387	301.07588641953	1
864	1581933	301.118463229318	0.98461538461538
864	1582589	301.142192611682	1
864	1613321	306.988034547934	0.98484848484848
864	1613504	307.003683930298	1
864	1626654	309.872793656222	0.98507462686567
864	1626839	309.891003038586	1
864	1635937	311.70701175661	0.98529411764706
864	1636265	311.725349138974	1
864	1661365	316.539977980619	0.98550724637681
864	1661550	316.555947362983	1
864	1663008	316.835390211516	0.98571428571429
864	1663329	316.85687959388	1
864	1677111	319.283689400352	0.98591549295775
864	1677531	319.302618782716	1
864	1677614	319.389113175886	0.98611111111111
864	1677799	319.40668255825	1
864	1677881	319.448607294522	0.98630136986301
864	1678168	319.466816676886	1
864	1689251	321.587037768018	0.98648648648649
864	1689809	321.609023150382	1
864	1711359	325.381888297103	0.98666666666667
864	1711549	325.397857679467	1
864	1715500	325.910667767387	0.98684210526316
864	1715683	325.924397149751	1
864	1721676	327.220560343011	0.98701298701299
864	1721973	327.244594392503	1
864	1737435	330.049882930627	0.98717948717949
864	1738109	330.072012312991	1
864	1751919	332.246450019542	0.9873417721519
864	1752384	332.274739401906	1
864	1826023	345.696816137881	0.9875
864	1826443	345.717345520245	1
864	1832972	347.181058544743	0.98765432098765
864	1833458	347.202227927107	1
864	1839322	348.537753238251	0.98780487804878
864	1839507	348.555002620615	1
864	1850842	350.769654313666	0.98795180722892
864	1851118	350.78562369603	1
864	1862694	353.080745606229	0.98809523809524
864	1863040	353.098314988593	1
864	1875543	355.368093214154	0.98823529411765
864	1875779	355.381822596518	1
864	1994251	377.840719324865	0.98837209302326
864	1994450	377.858608707229	1
864	1997072	378.114574060343	0.98850574712644
864	1997256	378.130543442707	1
864	2016285	381.508203212628	0.98863636363636
864	2016470	381.524492594992	1
864	2018241	381.738409061786	0.98876404494382
864	2018569	381.76021844415	1
864	2020927	382.077523129912	0.98888888888889
864	2021110	382.091572512276	1
864	2039905	384.733039946039	0.98901098901099
864	2040090	384.749329328403	1
864	2056704	388.827951102653	0.98913043478261
864	2056889	388.844560485017	1
864	2058756	389.278066910234	0.98924731182796
864	2059168	389.307316292598	1
864	2064267	390.527786402283	0.98936170212766
864	2064452	390.545035784647	1
864	2066546	390.900703019983	0.98947368421053
864	2066737	390.916992402347	1
864	2091778	395.303743092685	0.98958333333333
864	2092291	395.321632475049	1
864	2094191	395.663033097288	0.98969072164948
864	2095018	395.692763872952	1
864	2109703	398.877142404433	0.98979591836735
864	2109984	398.894071786797	1
864	2129268	402.551912024282	0.98989898989899
864	2129670	402.573401406646	1
864	2153085	406.083054053238	0.99
864	2153363	406.098703435602	1
