version 2
run CSMA-0-20161223-10:15:35-17240
attr beaconInterval 10s
attr configname CSMA
attr datetime 20161223-10:15:35
attr experiment CSMA
attr inifile simulations/omnetpp.ini
attr iterationvars "$packetLength=76B, $sendInt=2, $beaconInterval=10s, $0=10s/2, $1=3 * 10s"
attr iterationvars2 "$packetLength=76B, $sendInt=2, $beaconInterval=10s, $0=10s/2, $1=3 * 10s, $repetition=0"
attr measurement "$packetLength=76B, $sendInt=2, $beaconInterval=10s, $0=10s/2, $1=3 * 10s"
attr network multi_gateway.Net802154MultiGateway
attr packetLength 76B
attr processid 17240
attr repetition 0
attr replication #0
attr resultdir ../results
attr runnumber 0
attr seedset 0
attr sendInt 2
param **.configurator.addStaticRoutes false
param **.dumpRoutes false
param **.dumpTopology false
param **.host[*].**.gpsr.beaconInterval "${beaconInterval = 10s}"
param **.host[*].**.gpsr.maxJitter ${$beaconInterval/2}
param **.host[*].**.gpsr.neighborValidityInterval "${3 * $beaconInterval}"
param **.host[*].**.gpsr.positionByteLength "2 B"
param **.host[*].**.gpsr.routingStrategy "\"StraightestPath\""
param **.host[*].**.trafficgen.continueSendingDummyPackets true
param **.host[*].**.trafficgen.coolDownDuration 15s
param **.host[*].**.trafficgen.destAddresses "\"host[0].wrappedHost(modulepath)\""
param **.host[*].**.trafficgen.packetLength "${packetLength = 76B}"
param **.host[*].**.trafficgen.sendInterval "exponential(${sendInt=1.0..2.5 step 0.25}s)"
param **.host[*].**.trafficgen.startTime 30s
param **.host[*].**.trafficgen.warmUpDuration 190s
param **.host[*].**.wlan[*].mac.queueLength 30
param **.host[*].**.wlan[*].macType "\"Ieee802154NarrowbandMac\""
param **.host[*].**.wlan[*].radio.receiver.minInterferencePower "-100 dBm"
param **.host[*].hostType "\"SimpleHost\""
param **.host[*].mobilityType "\"StaticConcentricWrappingMobility\""
param **.host[0].**.trafficgen.numPackets 0
param **.host[1..].**.trafficgen.numPackets 100
param **.numHosts 62
param **.radioMedium.rangeFilter "\"interferenceRange\""
param **.routingTable.addressType "\"modulepath\""
param **.routingTableType "\"GenericRoutingTable\""

vector 9  Net802154MultiGateway.host[0].wrappedHost.trafficgen  sentDummyPk:vector(packetBytes)  ETV
attr interpolationmode  none
attr source  sentDummyPk
attr title  "dummy packets sent, vector(packetBytes)"
vector 23  Net802154MultiGateway.host[1].wrappedHost.trafficgen  sentDummyPk:vector(packetBytes)  ETV
attr interpolationmode  none
attr source  sentDummyPk
attr title  "dummy packets sent, vector(packetBytes)"
vector 37  Net802154MultiGateway.host[2].wrappedHost.trafficgen  sentDummyPk:vector(packetBytes)  ETV
attr interpolationmode  none
attr source  sentDummyPk
attr title  "dummy packets sent, vector(packetBytes)"
vector 51  Net802154MultiGateway.host[3].wrappedHost.trafficgen  sentDummyPk:vector(packetBytes)  ETV
attr interpolationmode  none
attr source  sentDummyPk
attr title  "dummy packets sent, vector(packetBytes)"
vector 65  Net802154MultiGateway.host[4].wrappedHost.trafficgen  sentDummyPk:vector(packetBytes)  ETV
attr interpolationmode  none
attr source  sentDummyPk
attr title  "dummy packets sent, vector(packetBytes)"
vector 79  Net802154MultiGateway.host[5].wrappedHost.trafficgen  sentDummyPk:vector(packetBytes)  ETV
attr interpolationmode  none
attr source  sentDummyPk
attr title  "dummy packets sent, vector(packetBytes)"
vector 93  Net802154MultiGateway.host[6].wrappedHost.trafficgen  sentDummyPk:vector(packetBytes)  ETV
attr interpolationmode  none
attr source  sentDummyPk
attr title  "dummy packets sent, vector(packetBytes)"
vector 107  Net802154MultiGateway.host[7].wrappedHost.trafficgen  sentDummyPk:vector(packetBytes)  ETV
attr interpolationmode  none
attr source  sentDummyPk
attr title  "dummy packets sent, vector(packetBytes)"
vector 121  Net802154MultiGateway.host[8].wrappedHost.trafficgen  sentDummyPk:vector(packetBytes)  ETV
attr interpolationmode  none
attr source  sentDummyPk
attr title  "dummy packets sent, vector(packetBytes)"
vector 135  Net802154MultiGateway.host[9].wrappedHost.trafficgen  sentDummyPk:vector(packetBytes)  ETV
attr interpolationmode  none
attr source  sentDummyPk
attr title  "dummy packets sent, vector(packetBytes)"
vector 149  Net802154MultiGateway.host[10].wrappedHost.trafficgen  sentDummyPk:vector(packetBytes)  ETV
attr interpolationmode  none
attr source  sentDummyPk
attr title  "dummy packets sent, vector(packetBytes)"
vector 163  Net802154MultiGateway.host[11].wrappedHost.trafficgen  sentDummyPk:vector(packetBytes)  ETV
attr interpolationmode  none
attr source  sentDummyPk
attr title  "dummy packets sent, vector(packetBytes)"
vector 177  Net802154MultiGateway.host[12].wrappedHost.trafficgen  sentDummyPk:vector(packetBytes)  ETV
attr interpolationmode  none
attr source  sentDummyPk
attr title  "dummy packets sent, vector(packetBytes)"
vector 191  Net802154MultiGateway.host[13].wrappedHost.trafficgen  sentDummyPk:vector(packetBytes)  ETV
attr interpolationmode  none
attr source  sentDummyPk
attr title  "dummy packets sent, vector(packetBytes)"
vector 205  Net802154MultiGateway.host[14].wrappedHost.trafficgen  sentDummyPk:vector(packetBytes)  ETV
attr interpolationmode  none
attr source  sentDummyPk
attr title  "dummy packets sent, vector(packetBytes)"
vector 219  Net802154MultiGateway.host[15].wrappedHost.trafficgen  sentDummyPk:vector(packetBytes)  ETV
attr interpolationmode  none
attr source  sentDummyPk
attr title  "dummy packets sent, vector(packetBytes)"
vector 233  Net802154MultiGateway.host[16].wrappedHost.trafficgen  sentDummyPk:vector(packetBytes)  ETV
attr interpolationmode  none
attr source  sentDummyPk
attr title  "dummy packets sent, vector(packetBytes)"
vector 247  Net802154MultiGateway.host[17].wrappedHost.trafficgen  sentDummyPk:vector(packetBytes)  ETV
attr interpolationmode  none
attr source  sentDummyPk
attr title  "dummy packets sent, vector(packetBytes)"
vector 261  Net802154MultiGateway.host[18].wrappedHost.trafficgen  sentDummyPk:vector(packetBytes)  ETV
attr interpolationmode  none
attr source  sentDummyPk
attr title  "dummy packets sent, vector(packetBytes)"
vector 275  Net802154MultiGateway.host[19].wrappedHost.trafficgen  sentDummyPk:vector(packetBytes)  ETV
attr interpolationmode  none
attr source  sentDummyPk
attr title  "dummy packets sent, vector(packetBytes)"
vector 289  Net802154MultiGateway.host[20].wrappedHost.trafficgen  sentDummyPk:vector(packetBytes)  ETV
attr interpolationmode  none
attr source  sentDummyPk
attr title  "dummy packets sent, vector(packetBytes)"
vector 303  Net802154MultiGateway.host[21].wrappedHost.trafficgen  sentDummyPk:vector(packetBytes)  ETV
attr interpolationmode  none
attr source  sentDummyPk
attr title  "dummy packets sent, vector(packetBytes)"
vector 317  Net802154MultiGateway.host[22].wrappedHost.trafficgen  sentDummyPk:vector(packetBytes)  ETV
attr interpolationmode  none
attr source  sentDummyPk
attr title  "dummy packets sent, vector(packetBytes)"
vector 331  Net802154MultiGateway.host[23].wrappedHost.trafficgen  sentDummyPk:vector(packetBytes)  ETV
attr interpolationmode  none
attr source  sentDummyPk
attr title  "dummy packets sent, vector(packetBytes)"
vector 345  Net802154MultiGateway.host[24].wrappedHost.trafficgen  sentDummyPk:vector(packetBytes)  ETV
attr interpolationmode  none
attr source  sentDummyPk
attr title  "dummy packets sent, vector(packetBytes)"
vector 359  Net802154MultiGateway.host[25].wrappedHost.trafficgen  sentDummyPk:vector(packetBytes)  ETV
attr interpolationmode  none
attr source  sentDummyPk
attr title  "dummy packets sent, vector(packetBytes)"
vector 373  Net802154MultiGateway.host[26].wrappedHost.trafficgen  sentDummyPk:vector(packetBytes)  ETV
attr interpolationmode  none
attr source  sentDummyPk
attr title  "dummy packets sent, vector(packetBytes)"
vector 387  Net802154MultiGateway.host[27].wrappedHost.trafficgen  sentDummyPk:vector(packetBytes)  ETV
attr interpolationmode  none
attr source  sentDummyPk
attr title  "dummy packets sent, vector(packetBytes)"
vector 401  Net802154MultiGateway.host[28].wrappedHost.trafficgen  sentDummyPk:vector(packetBytes)  ETV
attr interpolationmode  none
attr source  sentDummyPk
attr title  "dummy packets sent, vector(packetBytes)"
vector 415  Net802154MultiGateway.host[29].wrappedHost.trafficgen  sentDummyPk:vector(packetBytes)  ETV
attr interpolationmode  none
attr source  sentDummyPk
attr title  "dummy packets sent, vector(packetBytes)"
vector 429  Net802154MultiGateway.host[30].wrappedHost.trafficgen  sentDummyPk:vector(packetBytes)  ETV
attr interpolationmode  none
attr source  sentDummyPk
attr title  "dummy packets sent, vector(packetBytes)"
vector 443  Net802154MultiGateway.host[31].wrappedHost.trafficgen  sentDummyPk:vector(packetBytes)  ETV
attr interpolationmode  none
attr source  sentDummyPk
attr title  "dummy packets sent, vector(packetBytes)"
vector 457  Net802154MultiGateway.host[32].wrappedHost.trafficgen  sentDummyPk:vector(packetBytes)  ETV
attr interpolationmode  none
attr source  sentDummyPk
attr title  "dummy packets sent, vector(packetBytes)"
vector 471  Net802154MultiGateway.host[33].wrappedHost.trafficgen  sentDummyPk:vector(packetBytes)  ETV
attr interpolationmode  none
attr source  sentDummyPk
attr title  "dummy packets sent, vector(packetBytes)"
vector 485  Net802154MultiGateway.host[34].wrappedHost.trafficgen  sentDummyPk:vector(packetBytes)  ETV
attr interpolationmode  none
attr source  sentDummyPk
attr title  "dummy packets sent, vector(packetBytes)"
vector 499  Net802154MultiGateway.host[35].wrappedHost.trafficgen  sentDummyPk:vector(packetBytes)  ETV
attr interpolationmode  none
attr source  sentDummyPk
attr title  "dummy packets sent, vector(packetBytes)"
vector 513  Net802154MultiGateway.host[36].wrappedHost.trafficgen  sentDummyPk:vector(packetBytes)  ETV
attr interpolationmode  none
attr source  sentDummyPk
attr title  "dummy packets sent, vector(packetBytes)"
vector 527  Net802154MultiGateway.host[37].wrappedHost.trafficgen  sentDummyPk:vector(packetBytes)  ETV
attr interpolationmode  none
attr source  sentDummyPk
attr title  "dummy packets sent, vector(packetBytes)"
vector 541  Net802154MultiGateway.host[38].wrappedHost.trafficgen  sentDummyPk:vector(packetBytes)  ETV
attr interpolationmode  none
attr source  sentDummyPk
attr title  "dummy packets sent, vector(packetBytes)"
vector 555  Net802154MultiGateway.host[39].wrappedHost.trafficgen  sentDummyPk:vector(packetBytes)  ETV
attr interpolationmode  none
attr source  sentDummyPk
attr title  "dummy packets sent, vector(packetBytes)"
vector 569  Net802154MultiGateway.host[40].wrappedHost.trafficgen  sentDummyPk:vector(packetBytes)  ETV
attr interpolationmode  none
attr source  sentDummyPk
attr title  "dummy packets sent, vector(packetBytes)"
vector 583  Net802154MultiGateway.host[41].wrappedHost.trafficgen  sentDummyPk:vector(packetBytes)  ETV
attr interpolationmode  none
attr source  sentDummyPk
attr title  "dummy packets sent, vector(packetBytes)"
vector 597  Net802154MultiGateway.host[42].wrappedHost.trafficgen  sentDummyPk:vector(packetBytes)  ETV
attr interpolationmode  none
attr source  sentDummyPk
attr title  "dummy packets sent, vector(packetBytes)"
vector 611  Net802154MultiGateway.host[43].wrappedHost.trafficgen  sentDummyPk:vector(packetBytes)  ETV
attr interpolationmode  none
attr source  sentDummyPk
attr title  "dummy packets sent, vector(packetBytes)"
vector 625  Net802154MultiGateway.host[44].wrappedHost.trafficgen  sentDummyPk:vector(packetBytes)  ETV
attr interpolationmode  none
attr source  sentDummyPk
attr title  "dummy packets sent, vector(packetBytes)"
vector 639  Net802154MultiGateway.host[45].wrappedHost.trafficgen  sentDummyPk:vector(packetBytes)  ETV
attr interpolationmode  none
attr source  sentDummyPk
attr title  "dummy packets sent, vector(packetBytes)"
vector 653  Net802154MultiGateway.host[46].wrappedHost.trafficgen  sentDummyPk:vector(packetBytes)  ETV
attr interpolationmode  none
attr source  sentDummyPk
attr title  "dummy packets sent, vector(packetBytes)"
vector 667  Net802154MultiGateway.host[47].wrappedHost.trafficgen  sentDummyPk:vector(packetBytes)  ETV
attr interpolationmode  none
attr source  sentDummyPk
attr title  "dummy packets sent, vector(packetBytes)"
vector 681  Net802154MultiGateway.host[48].wrappedHost.trafficgen  sentDummyPk:vector(packetBytes)  ETV
attr interpolationmode  none
attr source  sentDummyPk
attr title  "dummy packets sent, vector(packetBytes)"
vector 695  Net802154MultiGateway.host[49].wrappedHost.trafficgen  sentDummyPk:vector(packetBytes)  ETV
attr interpolationmode  none
attr source  sentDummyPk
attr title  "dummy packets sent, vector(packetBytes)"
vector 709  Net802154MultiGateway.host[50].wrappedHost.trafficgen  sentDummyPk:vector(packetBytes)  ETV
attr interpolationmode  none
attr source  sentDummyPk
attr title  "dummy packets sent, vector(packetBytes)"
vector 723  Net802154MultiGateway.host[51].wrappedHost.trafficgen  sentDummyPk:vector(packetBytes)  ETV
attr interpolationmode  none
attr source  sentDummyPk
attr title  "dummy packets sent, vector(packetBytes)"
vector 737  Net802154MultiGateway.host[52].wrappedHost.trafficgen  sentDummyPk:vector(packetBytes)  ETV
attr interpolationmode  none
attr source  sentDummyPk
attr title  "dummy packets sent, vector(packetBytes)"
vector 751  Net802154MultiGateway.host[53].wrappedHost.trafficgen  sentDummyPk:vector(packetBytes)  ETV
attr interpolationmode  none
attr source  sentDummyPk
attr title  "dummy packets sent, vector(packetBytes)"
vector 765  Net802154MultiGateway.host[54].wrappedHost.trafficgen  sentDummyPk:vector(packetBytes)  ETV
attr interpolationmode  none
attr source  sentDummyPk
attr title  "dummy packets sent, vector(packetBytes)"
vector 779  Net802154MultiGateway.host[55].wrappedHost.trafficgen  sentDummyPk:vector(packetBytes)  ETV
attr interpolationmode  none
attr source  sentDummyPk
attr title  "dummy packets sent, vector(packetBytes)"
vector 793  Net802154MultiGateway.host[56].wrappedHost.trafficgen  sentDummyPk:vector(packetBytes)  ETV
attr interpolationmode  none
attr source  sentDummyPk
attr title  "dummy packets sent, vector(packetBytes)"
vector 807  Net802154MultiGateway.host[57].wrappedHost.trafficgen  sentDummyPk:vector(packetBytes)  ETV
attr interpolationmode  none
attr source  sentDummyPk
attr title  "dummy packets sent, vector(packetBytes)"
vector 821  Net802154MultiGateway.host[58].wrappedHost.trafficgen  sentDummyPk:vector(packetBytes)  ETV
attr interpolationmode  none
attr source  sentDummyPk
attr title  "dummy packets sent, vector(packetBytes)"
vector 835  Net802154MultiGateway.host[59].wrappedHost.trafficgen  sentDummyPk:vector(packetBytes)  ETV
attr interpolationmode  none
attr source  sentDummyPk
attr title  "dummy packets sent, vector(packetBytes)"
vector 849  Net802154MultiGateway.host[60].wrappedHost.trafficgen  sentDummyPk:vector(packetBytes)  ETV
attr interpolationmode  none
attr source  sentDummyPk
attr title  "dummy packets sent, vector(packetBytes)"
vector 863  Net802154MultiGateway.host[61].wrappedHost.trafficgen  sentDummyPk:vector(packetBytes)  ETV
attr interpolationmode  none
attr source  sentDummyPk
attr title  "dummy packets sent, vector(packetBytes)"
vector 356  Net802154MultiGateway.host[25].wrappedHost.trafficgen  sentPk:vector(packetBytes)  ETV
attr interpolationmode  none
attr source  sentPk
attr title  "packets sent, vector(packetBytes)"
vector 360  Net802154MultiGateway.host[25].wrappedHost.trafficgen  PRR:vector  ETV
attr interpolationmode  none
attr source  count(sinkRcvdPk)/count(sentPk)
attr title  "PRR, vector"
vector 552  Net802154MultiGateway.host[39].wrappedHost.trafficgen  sentPk:vector(packetBytes)  ETV
attr interpolationmode  none
attr source  sentPk
attr title  "packets sent, vector(packetBytes)"
vector 556  Net802154MultiGateway.host[39].wrappedHost.trafficgen  PRR:vector  ETV
attr interpolationmode  none
attr source  count(sinkRcvdPk)/count(sentPk)
attr title  "PRR, vector"
vector 358  Net802154MultiGateway.host[25].wrappedHost.trafficgen  sinkRcvdPk:vector(packetBytes)  ETV
attr interpolationmode  none
attr source  sinkRcvdPk
attr title  "own packets received by sink, vector(packetBytes)"
vector 5  Net802154MultiGateway.host[0].wrappedHost.trafficgen  rcvdPk:vector(packetBytes)  ETV
attr interpolationmode  none
attr source  rcvdPk
attr title  "packets received, vector(packetBytes)"
vector 7  Net802154MultiGateway.host[0].wrappedHost.trafficgen  endToEndDelay:vector  ETV
attr interpolationmode  none
attr source  messageAge(rcvdPk)
attr title  "end-to-end delay, vector"
attr unit  s
vector 468  Net802154MultiGateway.host[33].wrappedHost.trafficgen  sentPk:vector(packetBytes)  ETV
attr interpolationmode  none
attr source  sentPk
attr title  "packets sent, vector(packetBytes)"
vector 472  Net802154MultiGateway.host[33].wrappedHost.trafficgen  PRR:vector  ETV
attr interpolationmode  none
attr source  count(sinkRcvdPk)/count(sentPk)
attr title  "PRR, vector"
vector 554  Net802154MultiGateway.host[39].wrappedHost.trafficgen  sinkRcvdPk:vector(packetBytes)  ETV
attr interpolationmode  none
attr source  sinkRcvdPk
attr title  "own packets received by sink, vector(packetBytes)"
vector 470  Net802154MultiGateway.host[33].wrappedHost.trafficgen  sinkRcvdPk:vector(packetBytes)  ETV
attr interpolationmode  none
attr source  sinkRcvdPk
attr title  "own packets received by sink, vector(packetBytes)"
vector 790  Net802154MultiGateway.host[56].wrappedHost.trafficgen  sentPk:vector(packetBytes)  ETV
attr interpolationmode  none
attr source  sentPk
attr title  "packets sent, vector(packetBytes)"
vector 794  Net802154MultiGateway.host[56].wrappedHost.trafficgen  PRR:vector  ETV
attr interpolationmode  none
attr source  count(sinkRcvdPk)/count(sentPk)
attr title  "PRR, vector"
vector 792  Net802154MultiGateway.host[56].wrappedHost.trafficgen  sinkRcvdPk:vector(packetBytes)  ETV
attr interpolationmode  none
attr source  sinkRcvdPk
attr title  "own packets received by sink, vector(packetBytes)"
vector 636  Net802154MultiGateway.host[45].wrappedHost.trafficgen  sentPk:vector(packetBytes)  ETV
attr interpolationmode  none
attr source  sentPk
attr title  "packets sent, vector(packetBytes)"
vector 640  Net802154MultiGateway.host[45].wrappedHost.trafficgen  PRR:vector  ETV
attr interpolationmode  none
attr source  count(sinkRcvdPk)/count(sentPk)
attr title  "PRR, vector"
vector 300  Net802154MultiGateway.host[21].wrappedHost.trafficgen  sentPk:vector(packetBytes)  ETV
attr interpolationmode  none
attr source  sentPk
attr title  "packets sent, vector(packetBytes)"
vector 304  Net802154MultiGateway.host[21].wrappedHost.trafficgen  PRR:vector  ETV
attr interpolationmode  none
attr source  count(sinkRcvdPk)/count(sentPk)
attr title  "PRR, vector"
vector 638  Net802154MultiGateway.host[45].wrappedHost.trafficgen  sinkRcvdPk:vector(packetBytes)  ETV
attr interpolationmode  none
attr source  sinkRcvdPk
attr title  "own packets received by sink, vector(packetBytes)"
vector 302  Net802154MultiGateway.host[21].wrappedHost.trafficgen  sinkRcvdPk:vector(packetBytes)  ETV
attr interpolationmode  none
attr source  sinkRcvdPk
attr title  "own packets received by sink, vector(packetBytes)"
vector 76  Net802154MultiGateway.host[5].wrappedHost.trafficgen  sentPk:vector(packetBytes)  ETV
attr interpolationmode  none
attr source  sentPk
attr title  "packets sent, vector(packetBytes)"
vector 80  Net802154MultiGateway.host[5].wrappedHost.trafficgen  PRR:vector  ETV
attr interpolationmode  none
attr source  count(sinkRcvdPk)/count(sentPk)
attr title  "PRR, vector"
vector 272  Net802154MultiGateway.host[19].wrappedHost.trafficgen  sentPk:vector(packetBytes)  ETV
attr interpolationmode  none
attr source  sentPk
attr title  "packets sent, vector(packetBytes)"
vector 276  Net802154MultiGateway.host[19].wrappedHost.trafficgen  PRR:vector  ETV
attr interpolationmode  none
attr source  count(sinkRcvdPk)/count(sentPk)
attr title  "PRR, vector"
vector 860  Net802154MultiGateway.host[61].wrappedHost.trafficgen  sentPk:vector(packetBytes)  ETV
attr interpolationmode  none
attr source  sentPk
attr title  "packets sent, vector(packetBytes)"
vector 864  Net802154MultiGateway.host[61].wrappedHost.trafficgen  PRR:vector  ETV
attr interpolationmode  none
attr source  count(sinkRcvdPk)/count(sentPk)
attr title  "PRR, vector"
vector 78  Net802154MultiGateway.host[5].wrappedHost.trafficgen  sinkRcvdPk:vector(packetBytes)  ETV
attr interpolationmode  none
attr source  sinkRcvdPk
attr title  "own packets received by sink, vector(packetBytes)"
vector 244  Net802154MultiGateway.host[17].wrappedHost.trafficgen  sentPk:vector(packetBytes)  ETV
attr interpolationmode  none
attr source  sentPk
attr title  "packets sent, vector(packetBytes)"
vector 248  Net802154MultiGateway.host[17].wrappedHost.trafficgen  PRR:vector  ETV
attr interpolationmode  none
attr source  count(sinkRcvdPk)/count(sentPk)
attr title  "PRR, vector"
vector 274  Net802154MultiGateway.host[19].wrappedHost.trafficgen  sinkRcvdPk:vector(packetBytes)  ETV
attr interpolationmode  none
attr source  sinkRcvdPk
attr title  "own packets received by sink, vector(packetBytes)"
vector 804  Net802154MultiGateway.host[57].wrappedHost.trafficgen  sentPk:vector(packetBytes)  ETV
attr interpolationmode  none
attr source  sentPk
attr title  "packets sent, vector(packetBytes)"
vector 808  Net802154MultiGateway.host[57].wrappedHost.trafficgen  PRR:vector  ETV
attr interpolationmode  none
attr source  count(sinkRcvdPk)/count(sentPk)
attr title  "PRR, vector"
vector 246  Net802154MultiGateway.host[17].wrappedHost.trafficgen  sinkRcvdPk:vector(packetBytes)  ETV
attr interpolationmode  none
attr source  sinkRcvdPk
attr title  "own packets received by sink, vector(packetBytes)"
vector 862  Net802154MultiGateway.host[61].wrappedHost.trafficgen  sinkRcvdPk:vector(packetBytes)  ETV
attr interpolationmode  none
attr source  sinkRcvdPk
attr title  "own packets received by sink, vector(packetBytes)"
vector 806  Net802154MultiGateway.host[57].wrappedHost.trafficgen  sinkRcvdPk:vector(packetBytes)  ETV
attr interpolationmode  none
attr source  sinkRcvdPk
attr title  "own packets received by sink, vector(packetBytes)"
vector 748  Net802154MultiGateway.host[53].wrappedHost.trafficgen  sentPk:vector(packetBytes)  ETV
attr interpolationmode  none
attr source  sentPk
attr title  "packets sent, vector(packetBytes)"
vector 752  Net802154MultiGateway.host[53].wrappedHost.trafficgen  PRR:vector  ETV
attr interpolationmode  none
attr source  count(sinkRcvdPk)/count(sentPk)
attr title  "PRR, vector"
vector 412  Net802154MultiGateway.host[29].wrappedHost.trafficgen  sentPk:vector(packetBytes)  ETV
attr interpolationmode  none
attr source  sentPk
attr title  "packets sent, vector(packetBytes)"
vector 416  Net802154MultiGateway.host[29].wrappedHost.trafficgen  PRR:vector  ETV
attr interpolationmode  none
attr source  count(sinkRcvdPk)/count(sentPk)
attr title  "PRR, vector"
vector 750  Net802154MultiGateway.host[53].wrappedHost.trafficgen  sinkRcvdPk:vector(packetBytes)  ETV
attr interpolationmode  none
attr source  sinkRcvdPk
attr title  "own packets received by sink, vector(packetBytes)"
vector 414  Net802154MultiGateway.host[29].wrappedHost.trafficgen  sinkRcvdPk:vector(packetBytes)  ETV
attr interpolationmode  none
attr source  sinkRcvdPk
attr title  "own packets received by sink, vector(packetBytes)"
vector 622  Net802154MultiGateway.host[44].wrappedHost.trafficgen  sentPk:vector(packetBytes)  ETV
attr interpolationmode  none
attr source  sentPk
attr title  "packets sent, vector(packetBytes)"
vector 626  Net802154MultiGateway.host[44].wrappedHost.trafficgen  PRR:vector  ETV
attr interpolationmode  none
attr source  count(sinkRcvdPk)/count(sentPk)
attr title  "PRR, vector"
vector 314  Net802154MultiGateway.host[22].wrappedHost.trafficgen  sentPk:vector(packetBytes)  ETV
attr interpolationmode  none
attr source  sentPk
attr title  "packets sent, vector(packetBytes)"
vector 318  Net802154MultiGateway.host[22].wrappedHost.trafficgen  PRR:vector  ETV
attr interpolationmode  none
attr source  count(sinkRcvdPk)/count(sentPk)
attr title  "PRR, vector"
vector 118  Net802154MultiGateway.host[8].wrappedHost.trafficgen  sentPk:vector(packetBytes)  ETV
attr interpolationmode  none
attr source  sentPk
attr title  "packets sent, vector(packetBytes)"
vector 122  Net802154MultiGateway.host[8].wrappedHost.trafficgen  PRR:vector  ETV
attr interpolationmode  none
attr source  count(sinkRcvdPk)/count(sentPk)
attr title  "PRR, vector"
vector 316  Net802154MultiGateway.host[22].wrappedHost.trafficgen  sinkRcvdPk:vector(packetBytes)  ETV
attr interpolationmode  none
attr source  sinkRcvdPk
attr title  "own packets received by sink, vector(packetBytes)"
vector 120  Net802154MultiGateway.host[8].wrappedHost.trafficgen  sinkRcvdPk:vector(packetBytes)  ETV
attr interpolationmode  none
attr source  sinkRcvdPk
attr title  "own packets received by sink, vector(packetBytes)"
vector 624  Net802154MultiGateway.host[44].wrappedHost.trafficgen  sinkRcvdPk:vector(packetBytes)  ETV
attr interpolationmode  none
attr source  sinkRcvdPk
attr title  "own packets received by sink, vector(packetBytes)"
vector 524  Net802154MultiGateway.host[37].wrappedHost.trafficgen  sentPk:vector(packetBytes)  ETV
attr interpolationmode  none
attr source  sentPk
attr title  "packets sent, vector(packetBytes)"
vector 528  Net802154MultiGateway.host[37].wrappedHost.trafficgen  PRR:vector  ETV
attr interpolationmode  none
attr source  count(sinkRcvdPk)/count(sentPk)
attr title  "PRR, vector"
vector 398  Net802154MultiGateway.host[28].wrappedHost.trafficgen  sentPk:vector(packetBytes)  ETV
attr interpolationmode  none
attr source  sentPk
attr title  "packets sent, vector(packetBytes)"
vector 402  Net802154MultiGateway.host[28].wrappedHost.trafficgen  PRR:vector  ETV
attr interpolationmode  none
attr source  count(sinkRcvdPk)/count(sentPk)
attr title  "PRR, vector"
vector 400  Net802154MultiGateway.host[28].wrappedHost.trafficgen  sinkRcvdPk:vector(packetBytes)  ETV
attr interpolationmode  none
attr source  sinkRcvdPk
attr title  "own packets received by sink, vector(packetBytes)"
vector 526  Net802154MultiGateway.host[37].wrappedHost.trafficgen  sinkRcvdPk:vector(packetBytes)  ETV
attr interpolationmode  none
attr source  sinkRcvdPk
attr title  "own packets received by sink, vector(packetBytes)"
vector 832  Net802154MultiGateway.host[59].wrappedHost.trafficgen  sentPk:vector(packetBytes)  ETV
attr interpolationmode  none
attr source  sentPk
attr title  "packets sent, vector(packetBytes)"
vector 836  Net802154MultiGateway.host[59].wrappedHost.trafficgen  PRR:vector  ETV
attr interpolationmode  none
attr source  count(sinkRcvdPk)/count(sentPk)
attr title  "PRR, vector"
vector 834  Net802154MultiGateway.host[59].wrappedHost.trafficgen  sinkRcvdPk:vector(packetBytes)  ETV
attr interpolationmode  none
attr source  sinkRcvdPk
attr title  "own packets received by sink, vector(packetBytes)"
vector 566  Net802154MultiGateway.host[40].wrappedHost.trafficgen  sentPk:vector(packetBytes)  ETV
attr interpolationmode  none
attr source  sentPk
attr title  "packets sent, vector(packetBytes)"
vector 570  Net802154MultiGateway.host[40].wrappedHost.trafficgen  PRR:vector  ETV
attr interpolationmode  none
attr source  count(sinkRcvdPk)/count(sentPk)
attr title  "PRR, vector"
vector 104  Net802154MultiGateway.host[7].wrappedHost.trafficgen  sentPk:vector(packetBytes)  ETV
attr interpolationmode  none
attr source  sentPk
attr title  "packets sent, vector(packetBytes)"
vector 108  Net802154MultiGateway.host[7].wrappedHost.trafficgen  PRR:vector  ETV
attr interpolationmode  none
attr source  count(sinkRcvdPk)/count(sentPk)
attr title  "PRR, vector"
vector 568  Net802154MultiGateway.host[40].wrappedHost.trafficgen  sinkRcvdPk:vector(packetBytes)  ETV
attr interpolationmode  none
attr source  sinkRcvdPk
attr title  "own packets received by sink, vector(packetBytes)"
vector 106  Net802154MultiGateway.host[7].wrappedHost.trafficgen  sinkRcvdPk:vector(packetBytes)  ETV
attr interpolationmode  none
attr source  sinkRcvdPk
attr title  "own packets received by sink, vector(packetBytes)"
vector 146  Net802154MultiGateway.host[10].wrappedHost.trafficgen  sentPk:vector(packetBytes)  ETV
attr interpolationmode  none
attr source  sentPk
attr title  "packets sent, vector(packetBytes)"
vector 150  Net802154MultiGateway.host[10].wrappedHost.trafficgen  PRR:vector  ETV
attr interpolationmode  none
attr source  count(sinkRcvdPk)/count(sentPk)
attr title  "PRR, vector"
vector 148  Net802154MultiGateway.host[10].wrappedHost.trafficgen  sinkRcvdPk:vector(packetBytes)  ETV
attr interpolationmode  none
attr source  sinkRcvdPk
attr title  "own packets received by sink, vector(packetBytes)"
vector 762  Net802154MultiGateway.host[54].wrappedHost.trafficgen  sentPk:vector(packetBytes)  ETV
attr interpolationmode  none
attr source  sentPk
attr title  "packets sent, vector(packetBytes)"
vector 766  Net802154MultiGateway.host[54].wrappedHost.trafficgen  PRR:vector  ETV
attr interpolationmode  none
attr source  count(sinkRcvdPk)/count(sentPk)
attr title  "PRR, vector"
vector 764  Net802154MultiGateway.host[54].wrappedHost.trafficgen  sinkRcvdPk:vector(packetBytes)  ETV
attr interpolationmode  none
attr source  sinkRcvdPk
attr title  "own packets received by sink, vector(packetBytes)"
vector 594  Net802154MultiGateway.host[42].wrappedHost.trafficgen  sentPk:vector(packetBytes)  ETV
attr interpolationmode  none
attr source  sentPk
attr title  "packets sent, vector(packetBytes)"
vector 598  Net802154MultiGateway.host[42].wrappedHost.trafficgen  PRR:vector  ETV
attr interpolationmode  none
attr source  count(sinkRcvdPk)/count(sentPk)
attr title  "PRR, vector"
vector 440  Net802154MultiGateway.host[31].wrappedHost.trafficgen  sentPk:vector(packetBytes)  ETV
attr interpolationmode  none
attr source  sentPk
attr title  "packets sent, vector(packetBytes)"
vector 444  Net802154MultiGateway.host[31].wrappedHost.trafficgen  PRR:vector  ETV
attr interpolationmode  none
attr source  count(sinkRcvdPk)/count(sentPk)
attr title  "PRR, vector"
vector 442  Net802154MultiGateway.host[31].wrappedHost.trafficgen  sinkRcvdPk:vector(packetBytes)  ETV
attr interpolationmode  none
attr source  sinkRcvdPk
attr title  "own packets received by sink, vector(packetBytes)"
vector 596  Net802154MultiGateway.host[42].wrappedHost.trafficgen  sinkRcvdPk:vector(packetBytes)  ETV
attr interpolationmode  none
attr source  sinkRcvdPk
attr title  "own packets received by sink, vector(packetBytes)"
vector 90  Net802154MultiGateway.host[6].wrappedHost.trafficgen  sentPk:vector(packetBytes)  ETV
attr interpolationmode  none
attr source  sentPk
attr title  "packets sent, vector(packetBytes)"
vector 94  Net802154MultiGateway.host[6].wrappedHost.trafficgen  PRR:vector  ETV
attr interpolationmode  none
attr source  count(sinkRcvdPk)/count(sentPk)
attr title  "PRR, vector"
vector 92  Net802154MultiGateway.host[6].wrappedHost.trafficgen  sinkRcvdPk:vector(packetBytes)  ETV
attr interpolationmode  none
attr source  sinkRcvdPk
attr title  "own packets received by sink, vector(packetBytes)"
vector 20  Net802154MultiGateway.host[1].wrappedHost.trafficgen  sentPk:vector(packetBytes)  ETV
attr interpolationmode  none
attr source  sentPk
attr title  "packets sent, vector(packetBytes)"
vector 24  Net802154MultiGateway.host[1].wrappedHost.trafficgen  PRR:vector  ETV
attr interpolationmode  none
attr source  count(sinkRcvdPk)/count(sentPk)
attr title  "PRR, vector"
vector 132  Net802154MultiGateway.host[9].wrappedHost.trafficgen  sentPk:vector(packetBytes)  ETV
attr interpolationmode  none
attr source  sentPk
attr title  "packets sent, vector(packetBytes)"
vector 136  Net802154MultiGateway.host[9].wrappedHost.trafficgen  PRR:vector  ETV
attr interpolationmode  none
attr source  count(sinkRcvdPk)/count(sentPk)
attr title  "PRR, vector"
vector 22  Net802154MultiGateway.host[1].wrappedHost.trafficgen  sinkRcvdPk:vector(packetBytes)  ETV
attr interpolationmode  none
attr source  sinkRcvdPk
attr title  "own packets received by sink, vector(packetBytes)"
vector 134  Net802154MultiGateway.host[9].wrappedHost.trafficgen  sinkRcvdPk:vector(packetBytes)  ETV
attr interpolationmode  none
attr source  sinkRcvdPk
attr title  "own packets received by sink, vector(packetBytes)"
vector 846  Net802154MultiGateway.host[60].wrappedHost.trafficgen  sentPk:vector(packetBytes)  ETV
attr interpolationmode  none
attr source  sentPk
attr title  "packets sent, vector(packetBytes)"
vector 850  Net802154MultiGateway.host[60].wrappedHost.trafficgen  PRR:vector  ETV
attr interpolationmode  none
attr source  count(sinkRcvdPk)/count(sentPk)
attr title  "PRR, vector"
vector 848  Net802154MultiGateway.host[60].wrappedHost.trafficgen  sinkRcvdPk:vector(packetBytes)  ETV
attr interpolationmode  none
attr source  sinkRcvdPk
attr title  "own packets received by sink, vector(packetBytes)"
vector 454  Net802154MultiGateway.host[32].wrappedHost.trafficgen  sentPk:vector(packetBytes)  ETV
attr interpolationmode  none
attr source  sentPk
attr title  "packets sent, vector(packetBytes)"
vector 458  Net802154MultiGateway.host[32].wrappedHost.trafficgen  PRR:vector  ETV
attr interpolationmode  none
attr source  count(sinkRcvdPk)/count(sentPk)
attr title  "PRR, vector"
vector 456  Net802154MultiGateway.host[32].wrappedHost.trafficgen  sinkRcvdPk:vector(packetBytes)  ETV
attr interpolationmode  none
attr source  sinkRcvdPk
attr title  "own packets received by sink, vector(packetBytes)"
vector 188  Net802154MultiGateway.host[13].wrappedHost.trafficgen  sentPk:vector(packetBytes)  ETV
attr interpolationmode  none
attr source  sentPk
attr title  "packets sent, vector(packetBytes)"
vector 192  Net802154MultiGateway.host[13].wrappedHost.trafficgen  PRR:vector  ETV
attr interpolationmode  none
attr source  count(sinkRcvdPk)/count(sentPk)
attr title  "PRR, vector"
vector 34  Net802154MultiGateway.host[2].wrappedHost.trafficgen  sentPk:vector(packetBytes)  ETV
attr interpolationmode  none
attr source  sentPk
attr title  "packets sent, vector(packetBytes)"
vector 38  Net802154MultiGateway.host[2].wrappedHost.trafficgen  PRR:vector  ETV
attr interpolationmode  none
attr source  count(sinkRcvdPk)/count(sentPk)
attr title  "PRR, vector"
vector 664  Net802154MultiGateway.host[47].wrappedHost.trafficgen  sentPk:vector(packetBytes)  ETV
attr interpolationmode  none
attr source  sentPk
attr title  "packets sent, vector(packetBytes)"
vector 668  Net802154MultiGateway.host[47].wrappedHost.trafficgen  PRR:vector  ETV
attr interpolationmode  none
attr source  count(sinkRcvdPk)/count(sentPk)
attr title  "PRR, vector"
vector 190  Net802154MultiGateway.host[13].wrappedHost.trafficgen  sinkRcvdPk:vector(packetBytes)  ETV
attr interpolationmode  none
attr source  sinkRcvdPk
attr title  "own packets received by sink, vector(packetBytes)"
vector 36  Net802154MultiGateway.host[2].wrappedHost.trafficgen  sinkRcvdPk:vector(packetBytes)  ETV
attr interpolationmode  none
attr source  sinkRcvdPk
attr title  "own packets received by sink, vector(packetBytes)"
vector 608  Net802154MultiGateway.host[43].wrappedHost.trafficgen  sentPk:vector(packetBytes)  ETV
attr interpolationmode  none
attr source  sentPk
attr title  "packets sent, vector(packetBytes)"
vector 612  Net802154MultiGateway.host[43].wrappedHost.trafficgen  PRR:vector  ETV
attr interpolationmode  none
attr source  count(sinkRcvdPk)/count(sentPk)
attr title  "PRR, vector"
vector 720  Net802154MultiGateway.host[51].wrappedHost.trafficgen  sentPk:vector(packetBytes)  ETV
attr interpolationmode  none
attr source  sentPk
attr title  "packets sent, vector(packetBytes)"
vector 724  Net802154MultiGateway.host[51].wrappedHost.trafficgen  PRR:vector  ETV
attr interpolationmode  none
attr source  count(sinkRcvdPk)/count(sentPk)
attr title  "PRR, vector"
vector 666  Net802154MultiGateway.host[47].wrappedHost.trafficgen  sinkRcvdPk:vector(packetBytes)  ETV
attr interpolationmode  none
attr source  sinkRcvdPk
attr title  "own packets received by sink, vector(packetBytes)"
vector 610  Net802154MultiGateway.host[43].wrappedHost.trafficgen  sinkRcvdPk:vector(packetBytes)  ETV
attr interpolationmode  none
attr source  sinkRcvdPk
attr title  "own packets received by sink, vector(packetBytes)"
vector 692  Net802154MultiGateway.host[49].wrappedHost.trafficgen  sentPk:vector(packetBytes)  ETV
attr interpolationmode  none
attr source  sentPk
attr title  "packets sent, vector(packetBytes)"
vector 696  Net802154MultiGateway.host[49].wrappedHost.trafficgen  PRR:vector  ETV
attr interpolationmode  none
attr source  count(sinkRcvdPk)/count(sentPk)
attr title  "PRR, vector"
vector 694  Net802154MultiGateway.host[49].wrappedHost.trafficgen  sinkRcvdPk:vector(packetBytes)  ETV
attr interpolationmode  none
attr source  sinkRcvdPk
attr title  "own packets received by sink, vector(packetBytes)"
vector 286  Net802154MultiGateway.host[20].wrappedHost.trafficgen  sentPk:vector(packetBytes)  ETV
attr interpolationmode  none
attr source  sentPk
attr title  "packets sent, vector(packetBytes)"
vector 290  Net802154MultiGateway.host[20].wrappedHost.trafficgen  PRR:vector  ETV
attr interpolationmode  none
attr source  count(sinkRcvdPk)/count(sentPk)
attr title  "PRR, vector"
vector 288  Net802154MultiGateway.host[20].wrappedHost.trafficgen  sinkRcvdPk:vector(packetBytes)  ETV
attr interpolationmode  none
attr source  sinkRcvdPk
attr title  "own packets received by sink, vector(packetBytes)"
vector 342  Net802154MultiGateway.host[24].wrappedHost.trafficgen  sentPk:vector(packetBytes)  ETV
attr interpolationmode  none
attr source  sentPk
attr title  "packets sent, vector(packetBytes)"
vector 346  Net802154MultiGateway.host[24].wrappedHost.trafficgen  PRR:vector  ETV
attr interpolationmode  none
attr source  count(sinkRcvdPk)/count(sentPk)
attr title  "PRR, vector"
vector 344  Net802154MultiGateway.host[24].wrappedHost.trafficgen  sinkRcvdPk:vector(packetBytes)  ETV
attr interpolationmode  none
attr source  sinkRcvdPk
attr title  "own packets received by sink, vector(packetBytes)"
vector 370  Net802154MultiGateway.host[26].wrappedHost.trafficgen  sentPk:vector(packetBytes)  ETV
attr interpolationmode  none
attr source  sentPk
attr title  "packets sent, vector(packetBytes)"
vector 374  Net802154MultiGateway.host[26].wrappedHost.trafficgen  PRR:vector  ETV
attr interpolationmode  none
attr source  count(sinkRcvdPk)/count(sentPk)
attr title  "PRR, vector"
vector 372  Net802154MultiGateway.host[26].wrappedHost.trafficgen  sinkRcvdPk:vector(packetBytes)  ETV
attr interpolationmode  none
attr source  sinkRcvdPk
attr title  "own packets received by sink, vector(packetBytes)"
vector 510  Net802154MultiGateway.host[36].wrappedHost.trafficgen  sentPk:vector(packetBytes)  ETV
attr interpolationmode  none
attr source  sentPk
attr title  "packets sent, vector(packetBytes)"
vector 514  Net802154MultiGateway.host[36].wrappedHost.trafficgen  PRR:vector  ETV
attr interpolationmode  none
attr source  count(sinkRcvdPk)/count(sentPk)
attr title  "PRR, vector"
vector 512  Net802154MultiGateway.host[36].wrappedHost.trafficgen  sinkRcvdPk:vector(packetBytes)  ETV
attr interpolationmode  none
attr source  sinkRcvdPk
attr title  "own packets received by sink, vector(packetBytes)"
vector 174  Net802154MultiGateway.host[12].wrappedHost.trafficgen  sentPk:vector(packetBytes)  ETV
attr interpolationmode  none
attr source  sentPk
attr title  "packets sent, vector(packetBytes)"
vector 178  Net802154MultiGateway.host[12].wrappedHost.trafficgen  PRR:vector  ETV
attr interpolationmode  none
attr source  count(sinkRcvdPk)/count(sentPk)
attr title  "PRR, vector"
vector 176  Net802154MultiGateway.host[12].wrappedHost.trafficgen  sinkRcvdPk:vector(packetBytes)  ETV
attr interpolationmode  none
attr source  sinkRcvdPk
attr title  "own packets received by sink, vector(packetBytes)"
vector 580  Net802154MultiGateway.host[41].wrappedHost.trafficgen  sentPk:vector(packetBytes)  ETV
attr interpolationmode  none
attr source  sentPk
attr title  "packets sent, vector(packetBytes)"
vector 584  Net802154MultiGateway.host[41].wrappedHost.trafficgen  PRR:vector  ETV
attr interpolationmode  none
attr source  count(sinkRcvdPk)/count(sentPk)
attr title  "PRR, vector"
vector 582  Net802154MultiGateway.host[41].wrappedHost.trafficgen  sinkRcvdPk:vector(packetBytes)  ETV
attr interpolationmode  none
attr source  sinkRcvdPk
attr title  "own packets received by sink, vector(packetBytes)"
vector 48  Net802154MultiGateway.host[3].wrappedHost.trafficgen  sentPk:vector(packetBytes)  ETV
attr interpolationmode  none
attr source  sentPk
attr title  "packets sent, vector(packetBytes)"
vector 52  Net802154MultiGateway.host[3].wrappedHost.trafficgen  PRR:vector  ETV
attr interpolationmode  none
attr source  count(sinkRcvdPk)/count(sentPk)
attr title  "PRR, vector"
vector 776  Net802154MultiGateway.host[55].wrappedHost.trafficgen  sentPk:vector(packetBytes)  ETV
attr interpolationmode  none
attr source  sentPk
attr title  "packets sent, vector(packetBytes)"
vector 780  Net802154MultiGateway.host[55].wrappedHost.trafficgen  PRR:vector  ETV
attr interpolationmode  none
attr source  count(sinkRcvdPk)/count(sentPk)
attr title  "PRR, vector"
vector 50  Net802154MultiGateway.host[3].wrappedHost.trafficgen  sinkRcvdPk:vector(packetBytes)  ETV
attr interpolationmode  none
attr source  sinkRcvdPk
attr title  "own packets received by sink, vector(packetBytes)"
vector 202  Net802154MultiGateway.host[14].wrappedHost.trafficgen  sentPk:vector(packetBytes)  ETV
attr interpolationmode  none
attr source  sentPk
attr title  "packets sent, vector(packetBytes)"
vector 206  Net802154MultiGateway.host[14].wrappedHost.trafficgen  PRR:vector  ETV
attr interpolationmode  none
attr source  count(sinkRcvdPk)/count(sentPk)
attr title  "PRR, vector"
vector 204  Net802154MultiGateway.host[14].wrappedHost.trafficgen  sinkRcvdPk:vector(packetBytes)  ETV
attr interpolationmode  none
attr source  sinkRcvdPk
attr title  "own packets received by sink, vector(packetBytes)"
vector 778  Net802154MultiGateway.host[55].wrappedHost.trafficgen  sinkRcvdPk:vector(packetBytes)  ETV
attr interpolationmode  none
attr source  sinkRcvdPk
attr title  "own packets received by sink, vector(packetBytes)"
vector 258  Net802154MultiGateway.host[18].wrappedHost.trafficgen  sentPk:vector(packetBytes)  ETV
attr interpolationmode  none
attr source  sentPk
attr title  "packets sent, vector(packetBytes)"
vector 262  Net802154MultiGateway.host[18].wrappedHost.trafficgen  PRR:vector  ETV
attr interpolationmode  none
attr source  count(sinkRcvdPk)/count(sentPk)
attr title  "PRR, vector"
vector 260  Net802154MultiGateway.host[18].wrappedHost.trafficgen  sinkRcvdPk:vector(packetBytes)  ETV
attr interpolationmode  none
attr source  sinkRcvdPk
attr title  "own packets received by sink, vector(packetBytes)"
vector 496  Net802154MultiGateway.host[35].wrappedHost.trafficgen  sentPk:vector(packetBytes)  ETV
attr interpolationmode  none
attr source  sentPk
attr title  "packets sent, vector(packetBytes)"
vector 500  Net802154MultiGateway.host[35].wrappedHost.trafficgen  PRR:vector  ETV
attr interpolationmode  none
attr source  count(sinkRcvdPk)/count(sentPk)
attr title  "PRR, vector"
vector 498  Net802154MultiGateway.host[35].wrappedHost.trafficgen  sinkRcvdPk:vector(packetBytes)  ETV
attr interpolationmode  none
attr source  sinkRcvdPk
attr title  "own packets received by sink, vector(packetBytes)"
vector 230  Net802154MultiGateway.host[16].wrappedHost.trafficgen  sentPk:vector(packetBytes)  ETV
attr interpolationmode  none
attr source  sentPk
attr title  "packets sent, vector(packetBytes)"
vector 234  Net802154MultiGateway.host[16].wrappedHost.trafficgen  PRR:vector  ETV
attr interpolationmode  none
attr source  count(sinkRcvdPk)/count(sentPk)
attr title  "PRR, vector"
vector 232  Net802154MultiGateway.host[16].wrappedHost.trafficgen  sinkRcvdPk:vector(packetBytes)  ETV
attr interpolationmode  none
attr source  sinkRcvdPk
attr title  "own packets received by sink, vector(packetBytes)"
vector 650  Net802154MultiGateway.host[46].wrappedHost.trafficgen  sentPk:vector(packetBytes)  ETV
attr interpolationmode  none
attr source  sentPk
attr title  "packets sent, vector(packetBytes)"
vector 654  Net802154MultiGateway.host[46].wrappedHost.trafficgen  PRR:vector  ETV
attr interpolationmode  none
attr source  count(sinkRcvdPk)/count(sentPk)
attr title  "PRR, vector"
vector 652  Net802154MultiGateway.host[46].wrappedHost.trafficgen  sinkRcvdPk:vector(packetBytes)  ETV
attr interpolationmode  none
attr source  sinkRcvdPk
attr title  "own packets received by sink, vector(packetBytes)"
vector 818  Net802154MultiGateway.host[58].wrappedHost.trafficgen  sentPk:vector(packetBytes)  ETV
attr interpolationmode  none
attr source  sentPk
attr title  "packets sent, vector(packetBytes)"
vector 822  Net802154MultiGateway.host[58].wrappedHost.trafficgen  PRR:vector  ETV
attr interpolationmode  none
attr source  count(sinkRcvdPk)/count(sentPk)
attr title  "PRR, vector"
vector 820  Net802154MultiGateway.host[58].wrappedHost.trafficgen  sinkRcvdPk:vector(packetBytes)  ETV
attr interpolationmode  none
attr source  sinkRcvdPk
attr title  "own packets received by sink, vector(packetBytes)"
vector 384  Net802154MultiGateway.host[27].wrappedHost.trafficgen  sentPk:vector(packetBytes)  ETV
attr interpolationmode  none
attr source  sentPk
attr title  "packets sent, vector(packetBytes)"
vector 388  Net802154MultiGateway.host[27].wrappedHost.trafficgen  PRR:vector  ETV
attr interpolationmode  none
attr source  count(sinkRcvdPk)/count(sentPk)
attr title  "PRR, vector"
vector 386  Net802154MultiGateway.host[27].wrappedHost.trafficgen  sinkRcvdPk:vector(packetBytes)  ETV
attr interpolationmode  none
attr source  sinkRcvdPk
attr title  "own packets received by sink, vector(packetBytes)"
vector 216  Net802154MultiGateway.host[15].wrappedHost.trafficgen  sentPk:vector(packetBytes)  ETV
attr interpolationmode  none
attr source  sentPk
attr title  "packets sent, vector(packetBytes)"
vector 220  Net802154MultiGateway.host[15].wrappedHost.trafficgen  PRR:vector  ETV
attr interpolationmode  none
attr source  count(sinkRcvdPk)/count(sentPk)
attr title  "PRR, vector"
vector 218  Net802154MultiGateway.host[15].wrappedHost.trafficgen  sinkRcvdPk:vector(packetBytes)  ETV
attr interpolationmode  none
attr source  sinkRcvdPk
attr title  "own packets received by sink, vector(packetBytes)"
vector 482  Net802154MultiGateway.host[34].wrappedHost.trafficgen  sentPk:vector(packetBytes)  ETV
attr interpolationmode  none
attr source  sentPk
attr title  "packets sent, vector(packetBytes)"
vector 486  Net802154MultiGateway.host[34].wrappedHost.trafficgen  PRR:vector  ETV
attr interpolationmode  none
attr source  count(sinkRcvdPk)/count(sentPk)
attr title  "PRR, vector"
vector 484  Net802154MultiGateway.host[34].wrappedHost.trafficgen  sinkRcvdPk:vector(packetBytes)  ETV
attr interpolationmode  none
attr source  sinkRcvdPk
attr title  "own packets received by sink, vector(packetBytes)"
vector 538  Net802154MultiGateway.host[38].wrappedHost.trafficgen  sentPk:vector(packetBytes)  ETV
attr interpolationmode  none
attr source  sentPk
attr title  "packets sent, vector(packetBytes)"
vector 542  Net802154MultiGateway.host[38].wrappedHost.trafficgen  PRR:vector  ETV
attr interpolationmode  none
attr source  count(sinkRcvdPk)/count(sentPk)
attr title  "PRR, vector"
vector 540  Net802154MultiGateway.host[38].wrappedHost.trafficgen  sinkRcvdPk:vector(packetBytes)  ETV
attr interpolationmode  none
attr source  sinkRcvdPk
attr title  "own packets received by sink, vector(packetBytes)"
vector 734  Net802154MultiGateway.host[52].wrappedHost.trafficgen  sentPk:vector(packetBytes)  ETV
attr interpolationmode  none
attr source  sentPk
attr title  "packets sent, vector(packetBytes)"
vector 738  Net802154MultiGateway.host[52].wrappedHost.trafficgen  PRR:vector  ETV
attr interpolationmode  none
attr source  count(sinkRcvdPk)/count(sentPk)
attr title  "PRR, vector"
vector 736  Net802154MultiGateway.host[52].wrappedHost.trafficgen  sinkRcvdPk:vector(packetBytes)  ETV
attr interpolationmode  none
attr source  sinkRcvdPk
attr title  "own packets received by sink, vector(packetBytes)"
vector 426  Net802154MultiGateway.host[30].wrappedHost.trafficgen  sentPk:vector(packetBytes)  ETV
attr interpolationmode  none
attr source  sentPk
attr title  "packets sent, vector(packetBytes)"
vector 430  Net802154MultiGateway.host[30].wrappedHost.trafficgen  PRR:vector  ETV
attr interpolationmode  none
attr source  count(sinkRcvdPk)/count(sentPk)
attr title  "PRR, vector"
vector 160  Net802154MultiGateway.host[11].wrappedHost.trafficgen  sentPk:vector(packetBytes)  ETV
attr interpolationmode  none
attr source  sentPk
attr title  "packets sent, vector(packetBytes)"
vector 164  Net802154MultiGateway.host[11].wrappedHost.trafficgen  PRR:vector  ETV
attr interpolationmode  none
attr source  count(sinkRcvdPk)/count(sentPk)
attr title  "PRR, vector"
vector 162  Net802154MultiGateway.host[11].wrappedHost.trafficgen  sinkRcvdPk:vector(packetBytes)  ETV
attr interpolationmode  none
attr source  sinkRcvdPk
attr title  "own packets received by sink, vector(packetBytes)"
vector 428  Net802154MultiGateway.host[30].wrappedHost.trafficgen  sinkRcvdPk:vector(packetBytes)  ETV
attr interpolationmode  none
attr source  sinkRcvdPk
attr title  "own packets received by sink, vector(packetBytes)"
vector 62  Net802154MultiGateway.host[4].wrappedHost.trafficgen  sentPk:vector(packetBytes)  ETV
attr interpolationmode  none
attr source  sentPk
attr title  "packets sent, vector(packetBytes)"
vector 66  Net802154MultiGateway.host[4].wrappedHost.trafficgen  PRR:vector  ETV
attr interpolationmode  none
attr source  count(sinkRcvdPk)/count(sentPk)
attr title  "PRR, vector"
vector 64  Net802154MultiGateway.host[4].wrappedHost.trafficgen  sinkRcvdPk:vector(packetBytes)  ETV
attr interpolationmode  none
attr source  sinkRcvdPk
attr title  "own packets received by sink, vector(packetBytes)"
vector 706  Net802154MultiGateway.host[50].wrappedHost.trafficgen  sentPk:vector(packetBytes)  ETV
attr interpolationmode  none
attr source  sentPk
attr title  "packets sent, vector(packetBytes)"
vector 710  Net802154MultiGateway.host[50].wrappedHost.trafficgen  PRR:vector  ETV
attr interpolationmode  none
attr source  count(sinkRcvdPk)/count(sentPk)
attr title  "PRR, vector"
vector 708  Net802154MultiGateway.host[50].wrappedHost.trafficgen  sinkRcvdPk:vector(packetBytes)  ETV
attr interpolationmode  none
attr source  sinkRcvdPk
attr title  "own packets received by sink, vector(packetBytes)"
vector 678  Net802154MultiGateway.host[48].wrappedHost.trafficgen  sentPk:vector(packetBytes)  ETV
attr interpolationmode  none
attr source  sentPk
attr title  "packets sent, vector(packetBytes)"
vector 682  Net802154MultiGateway.host[48].wrappedHost.trafficgen  PRR:vector  ETV
attr interpolationmode  none
attr source  count(sinkRcvdPk)/count(sentPk)
attr title  "PRR, vector"
vector 680  Net802154MultiGateway.host[48].wrappedHost.trafficgen  sinkRcvdPk:vector(packetBytes)  ETV
attr interpolationmode  none
attr source  sinkRcvdPk
attr title  "own packets received by sink, vector(packetBytes)"
vector 328  Net802154MultiGateway.host[23].wrappedHost.trafficgen  sentPk:vector(packetBytes)  ETV
attr interpolationmode  none
attr source  sentPk
attr title  "packets sent, vector(packetBytes)"
vector 332  Net802154MultiGateway.host[23].wrappedHost.trafficgen  PRR:vector  ETV
attr interpolationmode  none
attr source  count(sinkRcvdPk)/count(sentPk)
attr title  "PRR, vector"
vector 330  Net802154MultiGateway.host[23].wrappedHost.trafficgen  sinkRcvdPk:vector(packetBytes)  ETV
attr interpolationmode  none
attr source  sinkRcvdPk
attr title  "own packets received by sink, vector(packetBytes)"
vector 722  Net802154MultiGateway.host[51].wrappedHost.trafficgen  sinkRcvdPk:vector(packetBytes)  ETV
attr interpolationmode  none
attr source  sinkRcvdPk
attr title  "own packets received by sink, vector(packetBytes)"
5	1225066	220.045746928858	76
5	1225304	220.0768113137	76
5	1225494	220.102079680616	76
5	1225766	220.187201632886	76
5	1226113	220.225582442689	76
5	1226342	220.24481543776	76
5	1226449	220.303985353683	76
5	1226813	220.327609408192	76
5	1226912	220.333613950012	76
5	1227273	220.357237097987	76
5	1227389	220.36998315206	76
5	1227752	220.43911898617	76
5	1227877	220.451817527098	76
5	1228180	220.48022532488	76
5	1228402	220.49337004862	76
5	1228532	220.508054395598	76
5	1228725	220.531022401907	76
5	1228962	220.5547417765	76
5	1229202	220.599557227141	76
5	1229777	220.649904440476	76
5	1229837	220.657496528813	76
5	1230078	220.718217868823	76
5	1230482	220.757106132143	76
5	1230746	220.778058932001	76
5	1230824	220.786761720256	76
5	1231002	220.804158937776	76
5	1231247	220.865361177465	76
5	1231681	220.911829877316	76
5	1231788	220.919683763322	76
5	1231974	220.94018882166	76
5	1232044	221.068174537295	76
5	1232114	221.090973880935	76
5	1232238	221.10377819377	76
5	1232624	221.135595892323	76
5	1232821	221.149564244121	76
5	1232881	221.156175137928	76
5	1233118	221.254188212507	76
5	1233415	221.287871701287	76
5	1233579	221.301733542882	76
5	1234059	221.378889542743	76
5	1234330	221.400479334364	76
5	1234745	221.42470263215	76
5	1234965	221.436623508067	76
5	1235039	221.441477992384	76
5	1235156	221.449071470239	76
5	1235398	221.465715574161	76
5	1235820	221.486432043736	76
5	1236098	221.504001654317	76
5	1236375	221.598703675189	76
5	1236568	221.632012088121	76
5	1236776	221.671926095862	76
5	1236905	221.685122763383	76
5	1236973	221.703068483441	76
5	1237142	221.720525523821	76
5	1237399	221.744737086362	76
5	1237762	221.774172345162	76
5	1238095	221.789829134428	76
5	1238225	221.795988292188	76
5	1238314	221.80047649544	76
5	1238443	221.81490713483	76
5	1238865	221.916031343205	76
5	1239009	221.933820210161	76
5	1239575	222.024072487362	76
5	1239633	222.029249953443	76
5	1239706	222.035424620571	76
5	1239753	222.039990686919	76
5	1239998	222.085006462974	76
5	1240342	222.198179714514	76
5	1240484	222.21569092545	76
5	1240824	222.252473699713	76
5	1240967	222.269686960565	76
5	1241177	222.323837482309	76
5	1241694	222.428858331172	76
5	1241781	222.435064221226	76
5	1241969	222.458155357128	76
5	1242159	222.527022177319	76
5	1242625	222.602748196144	76
5	1242687	222.612767960996	76
5	1242858	222.660052641217	76
5	1243263	222.681695301659	76
5	1243381	222.686629113166	76
5	1243575	222.700436804623	76
5	1243813	222.745581879794	76
5	1244044	222.770976892857	76
5	1244334	222.807982963588	76
5	1244632	222.867355393803	76
5	1244764	222.946295735494	76
5	1244899	223.021633797111	76
5	1245186	223.038850272872	76
5	1245330	223.055826103016	76
5	1245699	223.079410960256	76
5	1245965	223.091609336532	76
5	1246091	223.1040636003	76
5	1246205	223.113441754335	76
5	1246514	223.135710636882	76
5	1246685	223.147845981275	76
5	1247101	223.175075920638	76
5	1247664	223.194051950218	76
5	1247898	223.205335296317	76
5	1248013	223.211455758815	76
5	1248307	223.226802065097	76
5	1248380	223.23163519345	76
5	1248508	223.246316732225	76
5	1248672	223.277817124774	76
5	1248738	223.289540824292	76
5	1249008	223.394012606455	76
5	1249252	223.435432953013	76
5	1249495	223.470752574952	76
5	1249939	223.573308416472	76
5	1250187	223.58700879574	76
5	1250378	223.60782316383	76
5	1250503	223.618956923395	76
5	1250682	223.635359704847	76
5	1250878	223.657461974967	76
5	1251020	223.671519480889	76
5	1251328	223.717723236757	76
5	1251388	223.722619221261	76
5	1251612	223.741600699905	76
5	1251971	223.763884811205	76
5	1252125	223.777044776442	76
5	1252369	223.790956137661	76
5	1252679	223.809774329295	76
5	1252892	223.829647324548	76
5	1253022	223.849786988991	76
5	1253079	223.855961656119	76
5	1253390	223.884629301566	76
5	1253565	223.903915802012	76
5	1253748	223.933023534864	76
5	1253992	224.017914766584	76
5	1254127	224.047326839703	76
5	1254491	224.075882408485	76
5	1254656	224.087835229218	76
5	1254716	224.094329896346	76
5	1254924	224.123417228064	76
5	1255293	224.141532238129	76
5	1255514	224.154480201257	76
5	1255642	224.168781785498	76
5	1255832	224.243275649483	76
5	1256111	224.306929561741	76
5	1256228	224.320826976393	76
5	1256503	224.442968393044	76
5	1256674	224.511198955229	76
5	1256858	224.556324461349	76
5	1256990	224.576936141277	76
5	1257231	224.615184048879	76
5	1257666	224.642302570765	76
5	1257915	224.656719025566	76
5	1258109	224.670183551826	76
5	1258191	224.679766709991	76
5	1258388	224.718320505485	76
5	1258695	224.745812866206	76
5	1258989	224.766840882527	76
5	1259136	224.777077566506	76
5	1259211	224.784342324445	76
5	1259385	224.806340466132	76
5	1259724	224.883795497923	76
5	1259939	224.896523186805	76
5	1260141	224.909355646553	76
5	1260269	224.923807821057	76
5	1260728	225.029895735361	76
5	1261310	225.060566696174	76
5	1261833	225.101441583225	76
5	1261974	225.117342973096	76
5	1262202	225.144097851663	76
5	1262332	225.260030146311	76
5	1262573	225.308303052793	76
5	1262935	225.351440784887	76
5	1262995	225.358666229609	76
5	1263676	225.525076238536	76
5	1263802	225.529560735399	76
5	1264386	225.5591972449	76
5	1264503	225.569831730366	76
5	1264775	225.627183166495	76
5	1264904	225.642225395011	76
5	1264969	225.651332237838	76
5	1265159	225.678042826674	76
5	1265404	225.717288915611	76
5	1265649	225.740442803698	76
5	1265776	225.756111370841	76
5	1266016	225.832258420864	76
5	1266084	225.890387438614	76
5	1266145	225.898656012579	76
5	1266496	225.932185296399	76
5	1266698	225.950582279066	76
5	1266766	225.95646492204	76
5	1267002	225.978425865927	76
5	1267268	226.000979852899	76
5	1267605	226.014481342319	76
5	1267935	226.030459840912	76
5	1268000	226.036921693257	76
5	1268126	226.050704862143	76
5	1268256	226.122285905989	76
5	1268500	226.192164701378	76
5	1268846	226.269291738863	76
5	1268906	226.27704282462	76
5	1269306	226.365102570919	76
5	1269366	226.371064506478	76
5	1269615	226.401641937327	76
5	1269859	226.42172260591	76
5	1269921	226.428137513393	76
5	1270106	226.452492957177	76
5	1270301	226.512837780784	76
5	1270539	226.545252338485	76
5	1270668	226.594077303536	76
5	1270981	226.625150937896	76
5	1271232	226.648489455616	76
5	1271358	226.66685532635	76
5	1271561	226.740821331874	76
5	1271744	226.753542060491	76
5	1271949	226.778030579814	76
5	1272076	226.794335403489	76
5	1272319	226.853606872043	76
5	1272561	226.894647375534	76
5	1272691	226.933127537044	76
5	1273055	227.020542424968	76
5	1273192	227.034362059459	76
5	1273491	227.059777934238	76
5	1273558	227.070454514357	76
5	1273682	227.083589416318	76
5	1273748	227.123218317712	76
5	1274211	227.172031447518	76
5	1274522	227.187063473364	76
5	1274624	227.192935522687	76
5	1274695	227.197830189815	76
5	1274811	227.209930515922	76
5	1274881	227.249763980753	76
5	1275166	227.279397980362	76
5	1275404	227.29509335464	76
5	1275467	227.305858952272	76
5	1275595	227.350667628909	76
5	1275782	227.383266659017	76
5	1275974	227.503365227815	76
5	1276295	227.677691118936	76
5	1277329	227.72968799085	76
5	1277679	227.748807120979	76
5	1278044	227.769256486089	76
5	1278119	227.775610141983	76
5	1278166	227.780889841783	76
5	1278356	227.833633985847	76
5	1278510	227.877709992411	76
5	1278686	227.897390281341	76
5	1278876	227.985714204135	76
5	1279128	228.066515387756	76
5	1279319	228.081953521543	76
5	1279382	228.08818956724	76
5	1279760	228.121212749458	76
5	1279900	228.13741325924	76
5	1280137	228.235860956999	76
5	1280381	228.285622440343	76
5	1280802	228.351350723729	76
5	1280861	228.357554545341	76
5	1281056	228.388446746233	76
5	1281246	228.452196205927	76
5	1281426	228.495098919145	76
5	1281552	228.509211601453	76
5	1281625	228.548029017429	76
5	1281685	228.556971702317	76
5	1282306	228.664821137146	76
5	1282413	228.671845705381	76
5	1282541	228.686450589526	76
5	1282728	228.713015904035	76
5	1282975	228.826084411	76
5	1283689	228.916489673182	76
5	1283832	228.931022453746	76
5	1283968	229.147994720301	76
5	1284750	229.246588141616	76
5	1284880	229.258324961769	76
5	1285054	229.276970131073	76
5	1285290	229.310066234231	76
5	1285530	229.375032022279	76
5	1285797	229.458930218876	76
5	1285988	229.482254432298	76
5	1286286	229.526021482657	76
5	1286473	229.544384027185	76
5	1286911	229.576870609878	76
5	1286969	229.582584911396	76
5	1287462	229.672325457975	76
5	1287625	229.679544057752	76
5	1287826	229.691876617508	76
5	1287953	229.706786759523	76
5	1288019	229.737348925878	76
5	1288264	229.779952530594	76
5	1288570	229.847309497692	76
5	1288715	229.86543577397	76
5	1288955	229.94747946912	76
5	1289141	229.968762348616	76
5	1289511	230.017991111443	76
5	1289859	230.055452559155	76
5	1289985	230.070903226283	76
5	1290224	230.09811952995	76
5	1290413	230.129306933346	76
5	1290626	230.149617077066	76
5	1290943	230.189246750714	76
5	1291081	230.205685078964	76
5	1291328	230.233968139394	76
5	1291564	230.255052264516	76
5	1291690	230.270005147051	76
5	1291760	230.347524308529	76
5	1292039	230.375118107939	76
5	1292299	230.446677860439	76
5	1292480	230.458983115914	76
5	1292656	230.474785166463	76
5	1292970	230.499229145742	76
5	1293113	230.514693020391	76
5	1293507	230.55136826874	76
5	1293628	230.563457809886	76
5	1293866	230.592875978053	76
5	1294112	230.769812095859	76
5	1294288	230.788507916876	76
5	1294563	230.884619076862	76
5	1294677	230.890592187831	76
5	1294807	230.906371642728	76
5	1295064	230.971733440891	76
5	1295205	230.986380513803	76
5	1295347	231.002595701066	76
5	1295595	231.05229476773	76
5	1295849	231.069460807733	76
5	1296585	231.1363764588	76
5	1296713	231.144273298409	76
5	1296761	231.149167965537	76
5	1297025	231.174380141692	76
5	1297155	231.189796515618	76
5	1297221	231.213935748795	76
5	1297419	231.350064397642	76
5	1297508	231.371376345726	76
5	1297848	231.408446773997	76
5	1297960	231.414621441125	76
5	1298272	231.43428951659	76
5	1298457	231.445978012695	76
5	1299002	231.478876998498	76
5	1299126	231.493476249264	76
5	1299424	231.55438625079	76
5	1299690	231.606147631823	76
5	1299947	231.630037539796	76
5	1300139	231.655626697867	76
5	1300408	231.678060259798	76
5	1300595	231.699265465673	76
5	1300836	231.762251557056	76
5	1301014	231.782339804519	76
5	1301106	231.78796321303	76
5	1301318	231.810079407051	76
5	1301863	231.866767039425	76
5	1301997	231.877373930551	76
5	1302112	231.889462171117	76
5	1302313	232.101543246306	76
5	1302452	232.117015894846	76
5	1302518	232.181316598772	76
5	1302801	232.250207744304	76
5	1303098	232.289781757313	76
5	1303342	232.335154613198	76
5	1303419	232.352120511649	76
5	1303740	232.420884058736	76
5	1304008	232.48567231228	76
5	1304487	232.513693176308	76
5	1304561	232.518254445875	76
5	1304888	232.533921447402	76
5	1304980	232.54041611453	76
5	1305107	232.555086306338	76
5	1305235	232.569313148387	76
5	1305408	232.586703559176	76
5	1306032	232.65274528445	76
5	1306167	232.671201014705	76
5	1306212	232.676415681833	76
5	1306622	232.728277324742	76
5	1306748	232.740506661022	76
5	1306974	232.791382581174	76
5	1307207	232.822923659467	76
5	1307443	232.871538837797	76
5	1307571	232.884129866	76
5	1307749	232.903606155504	76
5	1307986	232.928602506157	76
5	1308178	232.948917282859	76
5	1308538	232.978766043799	76
5	1308598	232.985449631899	76
5	1308880	233.019011594925	76
5	1309108	233.032471863422	76
5	1309303	233.047522671813	76
5	1309434	233.061750925702	76
5	1309899	233.15518830416	76
5	1309960	233.166579457372	76
5	1310202	233.279617374823	76
5	1310692	233.364462462932	76
5	1310814	233.372087762566	76
5	1310955	233.38817496316	76
5	1311238	233.421554850029	76
5	1311816	233.451824712087	76
5	1311899	233.460669218028	76
5	1311963	233.473217210689	76
5	1312141	233.492116782793	76
5	1312437	233.543169771405	76
5	1312566	233.556666683997	76
5	1313081	233.60623831478	76
5	1313233	233.616379487998	76
5	1313386	233.630047768455	76
5	1313661	233.653536343745	76
5	1313740	233.659071010873	76
5	1313967	233.673432464558	76
5	1314279	233.69423222017	76
5	1314500	233.708067893638	76
5	1314562	233.712962560766	76
5	1314849	233.726164787504	76
5	1314977	233.741725588721	76
5	1315272	233.776493026093	76
5	1315702	233.813417182144	76
5	1315807	233.818566474389	76
5	1315984	233.831387695377	76
5	1316123	233.845665117064	76
5	1316394	233.869704063701	76
5	1316659	233.888356447918	76
5	1317290	233.924069974778	76
5	1317541	233.948089459058	76
5	1317832	233.96699102402	76
5	1317950	233.980129659607	76
5	1318014	233.990205580593	76
5	1318259	234.013687271798	76
5	1318674	234.037506230837	76
5	1318722	234.043106212989	76
5	1318971	234.113087483357	76
5	1320012	234.170715259738	76
5	1320164	234.183578342148	76
5	1320236	234.189795926866	76
5	1320443	234.214549223767	76
5	1320626	234.243259395391	76
5	1320813	234.264792547133	76
5	1321090	234.301703892866	76
5	1321191	234.359170218482	76
5	1321438	234.45971054999	76
5	1321665	234.486136013369	76
5	1321795	234.522884540552	76
5	1322150	234.757435080269	76
5	1322435	234.77963318803	76
5	1322513	234.78836719258	76
5	1322700	234.85387211803	76
5	1323196	234.931660863201	76
5	1323282	234.936919659003	76
5	1323435	234.954331872262	76
5	1323702	235.007739157693	76
5	1324058	235.03891941461	76
5	1324191	235.049720929671	76
5	1324654	235.070881246438	76
5	1324732	235.075573727587	76
5	1324866	235.087479789968	76
5	1324913	235.092586053166	76
5	1325383	235.143677817046	76
5	1325456	235.149212484174	76
5	1325599	235.166597065344	76
5	1325791	235.195559586416	76
5	1325990	235.24272898528	76
5	1326133	235.259615055392	76
5	1326447	235.358907951042	76
5	1326563	235.371549263967	76
5	1326806	235.435461522716	76
5	1326941	235.452541818412	76
5	1327174	235.479659391529	76
5	1327477	235.502263475963	76
5	1327602	235.515352041634	76
5	1327732	235.544916406691	76
5	1327977	235.596112876765	76
5	1328037	235.603115486674	76
5	1328260	235.653132998967	76
5	1328464	235.678414892987	76
5	1328829	235.70776295807	76
5	1328998	235.718709318354	76
5	1329213	235.742154339282	76
5	1329424	235.763683737941	76
5	1329920	235.798785652854	76
5	1330150	235.810705202949	76
5	1330282	235.816559870077	76
5	1330677	235.841112107296	76
5	1330754	235.849098850531	76
5	1330884	235.875509633937	76
5	1331154	235.908682256427	76
5	1331279	235.923913519318	76
5	1331487	235.944507904872	76
5	1331887	235.966599164417	76
5	1332073	235.982374077003	76
5	1332120	235.987140009969	76
5	1332362	236.021380173916	76
5	1332620	236.077577924466	76
5	1332874	236.093024648917	76
5	1333016	236.110888230431	76
5	1333206	236.156112932156	76
5	1333272	236.177777263661	76
5	1333460	236.263526937965	76
5	1333650	236.29559954008	76
5	1333894	236.348559378952	76
5	1334086	236.372568930337	76
5	1334218	236.434783698414	76
5	1334524	236.46565248061	76
5	1334744	236.486066013838	76
5	1334886	236.50366766341	76
5	1335127	236.612351388162	76
5	1335319	236.637057847228	76
5	1335676	236.679021381344	76
5	1335737	236.683464655137	76
5	1335918	236.700458462466	76
5	1335981	236.71094701702	76
5	1336170	236.740210775917	76
5	1336408	236.773976804456	76
5	1336645	236.814111680971	76
5	1337010	236.900780524939	76
5	1337168	236.916019319302	76
5	1337343	236.935718272021	76
5	1337473	237.004586459772	76
5	1337719	237.046749643531	76
5	1337909	237.08024713471	76
5	1338222	237.21451860056	76
5	1338364	237.229006730487	76
5	1338602	237.273855806572	76
5	1338732	237.346571073196	76
5	1338862	237.377205947494	76
5	1339103	237.423840827053	76
5	1339492	237.465954284579	76
5	1339612	237.476313129945	76
5	1339674	237.489986016322	76
5	1339802	237.517340694514	76
5	1340053	237.565556794408	76
5	1340255	237.588766007464	76
5	1340448	237.6171967481	76
5	1340608	237.691016536248	76
5	1340954	237.716183977278	76
5	1341255	237.733501483929	76
5	1341668	237.766981675471	76
5	1341734	237.78685766271	76
5	1341922	237.854620217225	76
5	1342245	237.922182122426	76
5	1342408	237.934229507674	76
5	1342626	237.953539662591	76
5	1342723	237.958960975423	76
5	1342899	237.980299539309	76
5	1343028	238.010648471767	76
5	1343218	238.111356590508	76
5	1343456	238.224208271601	76
5	1343821	238.25852037834	76
5	1343882	238.265239904118	76
5	1344084	238.2968801339	76
5	1344305	238.314154115935	76
5	1344490	238.334352118408	76
5	1344621	238.374921446831	76
5	1344781	238.399678785464	76
5	1345131	238.418081756069	76
5	1345513	238.435780370301	76
5	1345831	238.454393127612	76
5	1346081	238.467874452812	76
5	1346200	238.47518779474	76
5	1346332	238.48995568583	76
5	1346400	238.523239936541	76
5	1346705	238.553752935837	76
5	1346821	238.5656257953	76
5	1347062	238.616190031301	76
5	1347409	238.664656908109	76
5	1347597	238.675699877363	76
5	1347891	238.689901335462	76
5	1348043	238.70062921169	76
5	1348171	238.712166357431	76
5	1348230	238.718461637942	76
5	1348481	238.820987090207	76
5	1348624	238.837729210306	76
5	1348911	238.881082612701	76
5	1348971	238.887606003032	76
5	1349216	238.941348619335	76
5	1349404	239.002769132448	76
5	1349594	239.036067639726	76
5	1349795	239.068174500506	76
5	1349937	239.08571931192	76
5	1350284	239.176010241226	76
5	1350654	239.1984461628	76
5	1350710	239.202945929094	76
5	1350825	239.214832596222	76
5	1351017	239.291133944208	76
5	1351208	239.314245276625	76
5	1351398	239.380159516539	76
5	1351545	239.400287899841	76
5	1351923	239.427131153506	76
5	1352073	239.437969670633	76
5	1352203	239.449091820634	76
5	1352346	239.464126633044	76
5	1352412	239.516276945099	76
5	1352600	239.547983179121	76
5	1352846	239.6217365129	76
5	1353310	239.655421633755	76
5	1353457	239.664678009012	76
5	1353652	239.678860067463	76
5	1353830	239.698674284099	76
5	1353960	239.742688485666	76
5	1354092	239.765429116326	76
5	1354384	239.814690982657	76
5	1354616	239.838463042742	76
5	1354766	239.854643478601	76
5	1354824	239.860498145729	76
5	1354958	239.881502522302	76
5	1355018	239.88799718943	76
5	1355210	239.914135375285	76
5	1355453	239.971227921605	76
5	1355714	240.069083252391	76
5	1356064	240.093520836593	76
5	1356209	240.107880720398	76
5	1356431	240.164096832166	76
5	1356642	240.189002472181	76
5	1356903	240.302057056149	76
5	1357080	240.314307723277	76
5	1357128	240.319890303493	76
5	1357681	240.375868146053	76
5	1357908	240.387498284031	76
5	1357997	240.393782813181	76
5	1358252	240.407344914447	76
5	1358432	240.42749767062	76
5	1358839	240.485100929782	76
5	1358971	240.567799296639	76
5	1359327	240.604096246148	76
5	1359515	240.62734199039	76
5	1359728	240.783451979487	76
5	1359929	240.806716382074	76
5	1360162	240.833192714099	76
5	1360358	240.930590152817	76
5	1361051	241.053831156331	76
5	1361244	241.073787343748	76
5	1361486	241.134587449186	76
5	1362211	241.218959332744	76
5	1362307	241.225301235962	76
5	1362444	241.237088497662	76
5	1362609	241.253022926079	76
5	1362897	241.317283450232	76
5	1363090	241.333177223993	76
5	1363281	241.355115236971	76
5	1363767	241.418399429822	76
5	1363866	241.424083097303	76
5	1364229	241.450609259596	76
5	1364352	241.458100442766	76
5	1364479	241.471802976492	76
5	1364718	241.535394123351	76
5	1365350	241.647816548345	76
5	1365541	241.726285927511	76
5	1365832	241.784517618005	76
5	1366079	241.84585666378	76
5	1366278	241.860150369468	76
5	1366570	241.876299243198	76
5	1366702	241.882473910326	76
5	1366822	241.888546180845	76
5	1367032	241.900691781555	76
5	1367104	241.907651537516	76
5	1367331	241.935824939135	76
5	1367694	241.973210914847	76
5	1367957	241.988550804533	76
5	1368410	242.006969093378	76
5	1368680	242.01850842128	76
5	1368796	242.025712852965	76
5	1369010	242.043233099204	76
5	1369250	242.06514408627	76
5	1369523	242.08577997728	76
5	1369654	242.095529905308	76
5	1369828	242.107558898933	76
5	1370105	242.126474341345	76
5	1370235	242.135841446453	76
5	1370528	242.150862845091	76
5	1370671	242.167457527272	76
5	1370790	242.268119753794	76
5	1371041	242.30161688555	76
5	1371272	242.328204375863	76
5	1371512	242.392258540288	76
5	1371821	242.472383380387	76
5	1371996	242.491786033008	76
5	1372254	242.52245886606	76
5	1372461	242.544985185756	76
5	1372636	242.566184039803	76
5	1372861	242.603613361706	76
5	1373157	242.705057114173	76
5	1373375	242.720720342672	76
5	1373439	242.734279059956	76
5	1373987	242.784412198353	76
5	1374048	242.792639701158	76
5	1374289	242.824401271289	76
5	1374531	242.874602528231	76
5	1374724	242.931772964594	76
5	1374999	243.059736880303	76
5	1375328	243.087886389824	76
5	1375526	243.100323066313	76
5	1375642	243.111264131654	76
5	1375934	243.153459049349	76
5	1376232	243.204998655639	76
5	1376421	243.238324041442	76
5	1376668	243.323378260146	76
5	1376921	243.423755871971	76
5	1377135	243.443424964454	76
5	1377281	243.461334311395	76
5	1377478	243.530025766981	76
5	1377838	243.549954343581	76
5	1378078	243.562828874959	76
5	1378416	243.580499830636	76
5	1378669	243.597510696409	76
5	1378949	243.63152635229	76
5	1379123	243.64958850341	76
5	1379425	243.69997583954	76
5	1379563	243.708969521847	76
5	1379705	243.723159453311	76
5	1379994	243.743408012807	76
5	1380248	243.758921871525	76
5	1380364	243.771388836095	76
5	1380619	243.803617539881	76
5	1380930	243.823427761812	76
5	1381046	243.829622639328	76
5	1381366	243.861088570917	76
5	1381424	243.867583238045	76
5	1381759	244.004439982575	76
5	1381940	244.050291094645	76
5	1382298	244.072916155971	76
5	1382378	244.08334139409	76
5	1382872	244.124861120439	76
5	1383308	244.153128870425	76
5	1383496	244.174468888016	76
5	1383799	244.243061582337	76
5	1383990	244.263292998167	76
5	1384446	244.291302012464	76
5	1384531	244.296247096233	76
5	1384659	244.30841792139	76
5	1385114	244.340409068581	76
5	1385447	244.360724931769	76
5	1385514	244.36716193673	76
5	1385617	244.373224215058	76
5	1385923	244.399074143262	76
5	1386133	244.415853536108	76
5	1386363	244.435885547002	76
5	1386623	244.456782040206	76
5	1386881	244.475456770348	76
5	1387061	244.495684921977	76
5	1387176	244.507591150048	76
5	1387461	244.570988092837	76
5	1387711	244.62037760331	76
5	1387897	244.63926984247	76
5	1388083	244.718265539415	76
5	1388610	244.761229401455	76
5	1388704	244.767514709137	76
5	1389025	244.784283433991	76
5	1389120	244.791601376265	76
5	1389201	244.801391139556	76
5	1389326	244.818195252293	76
5	1389562	244.866481506917	76
5	1389680	244.882099635744	76
5	1389925	245.043748711248	76
5	1390117	245.211309279584	76
5	1390245	245.227373349234	76
5	1390565	245.315212302237	76
5	1391036	245.352515389269	76
5	1391382	245.412940381841	76
5	1391460	245.422426090066	76
5	1391798	245.438166802436	76
5	1391881	245.443794748551	76
5	1392138	245.457537834198	76
5	1392594	245.484489167956	76
5	1392856	245.502594502212	76
5	1392908	245.507675549599	76
5	1392970	245.52108316934	76
5	1393028	245.527897836468	76
5	1393218	245.568205818762	76
5	1393457	245.619054129563	76
5	1393644	245.657683453586	76
5	1394013	245.722444447423	76
5	1394247	245.736054652641	76
5	1394427	245.748398511003	76
5	1394641	245.76462733434	76
5	1394844	245.786607098389	76
5	1395031	245.827643068054	76
5	1395287	245.895536829267	76
5	1395434	245.912204077666	76
5	1395574	245.927506096199	76
5	1395797	245.953387732546	76
5	1396185	246.024631110835	76
5	1396301	246.036336139485	76
5	1396616	246.068887666689	76
5	1396717	246.075550820655	76
5	1396844	246.089947619667	76
5	1397154	246.125951047714	76
5	1397373	246.14307250663	76
5	1397572	246.165193222053	76
5	1397702	246.192016991301	76
5	1397937	246.305452649563	76
5	1398178	246.353802643457	76
5	1398244	246.386431585462	76
5	1398553	246.439498870152	76
5	1398668	246.452758646048	76
5	1398737	246.606068118113	76
5	1398801	246.626293978796	76
5	1399038	246.665277255128	76
5	1399333	246.769065213974	76
5	1399471	246.781350720922	76
5	1399734	246.808970142478	76
5	1399921	246.823604259331	76
5	1400116	246.83965875032	76
5	1400176	246.845551234645	76
5	1400517	246.891263610274	76
5	1400637	246.903948277402	76
5	1400874	246.932633706478	76
5	1401109	246.971176053583	76
5	1401347	247.00960638026	76
5	1401540	247.036797605655	76
5	1401781	247.083916119396	76
5	1402112	247.203745949028	76
5	1402382	247.219572882685	76
5	1402643	247.235467275209	76
5	1402761	247.2426705308	76
5	1402904	247.258342661431	76
5	1403034	247.283859299509	76
5	1403225	247.335013071682	76
5	1403354	247.353816767512	76
5	1403546	247.386282580387	76
5	1403731	247.407568853878	76
5	1404004	247.467623087492	76
5	1404348	247.490389201408	76
5	1404573	247.507140093152	76
5	1404633	247.514081876054	76
5	1404823	247.587689357995	76
5	1405124	247.618007378605	76
5	1405275	247.63480166142	76
5	1405405	247.665065424185	76
5	1405720	247.74814924473	76
5	1405909	247.770930915449	76
5	1406225	247.834804858184	76
5	1406414	247.860185371187	76
5	1406709	247.90422190031	76
5	1406851	247.919193894345	76
5	1407053	247.933653850919	76
5	1407173	247.944776209212	76
5	1407567	247.986419342856	76
5	1407770	247.99915937912	76
5	1407898	248.014444036589	76
5	1408238	248.047311708713	76
5	1408355	248.060352291162	76
5	1408544	248.090877590729	76
5	1408731	248.128628639904	76
5	1408962	248.153359965052	76
5	1409105	248.170005713791	76
5	1409316	248.211522913431	76
5	1409363	248.217127484865	76
5	1409679	248.28321615551	76
5	1409795	248.294893051071	76
5	1409867	248.390952563652	76
5	1409925	248.39680723078	76
5	1410194	248.426603533358	76
5	1410499	248.448672690119	76
5	1410794	248.475045815806	76
5	1410854	248.480900482934	76
5	1410927	248.49030576855	76
5	1411178	248.517257089947	76
5	1411404	248.541443826312	76
5	1411534	248.618131805624	76
5	1411664	248.684984602165	76
5	1411852	248.772458913437	76
5	1412088	248.813396465983	76
5	1412320	248.831617766389	76
5	1412669	248.857199658746	76
5	1412932	248.871804911065	76
5	1413155	248.884335876561	76
5	1413275	248.890687809369	76
5	1413362	248.897881845831	76
5	1413520	248.91519495481	76
5	1413696	248.93558840195	76
5	1413888	248.973973957976	76
5	1414129	249.052068075206	76
5	1414370	249.084665433124	76
5	1414662	249.144413335032	76
5	1414849	249.167013160677	76
5	1415026	249.273005053561	76
5	1415234	249.288793178325	76
5	1415282	249.29366758581	76
5	1415550	249.377001977167	76
5	1415737	249.397797259248	76
5	1416039	249.472478255653	76
5	1416170	249.487286566862	76
5	1416360	249.663484982209	76
5	1416825	249.714610778777	76
5	1417052	249.728711868361	76
5	1417329	249.746440123609	76
5	1417391	249.751831605461	76
5	1417438	249.756468893611	76
5	1417685	249.809062580209	76
5	1417762	249.819081247485	76
5	1417951	249.88357856618	76
5	1418146	249.911258815902	76
5	1418389	249.941993857598	76
5	1418448	249.948414889073	76
5	1418736	249.986203396628	76
5	1418864	249.998923559627	76
5	1419121	250.020496732784	76
5	1419248	250.035072332083	76
5	1419569	250.156924241817	76
5	1419632	250.165125567706	76
5	1419697	250.187822819837	76
5	1419851	250.266244909578	76
5	1420123	250.293641086832	76
5	1420627	250.338527638693	76
5	1420724	250.345746074105	76
5	1420859	250.351920741233	76
5	1421047	250.366067240422	76
5	1421367	250.408277878912	76
5	1421430	250.41783545287	76
5	1421679	250.441846660793	76
5	1421856	250.462444326116	76
5	1422394	250.650946969525	76
5	1422581	250.666006551665	76
5	1422824	250.689882508781	76
5	1423069	250.742331055274	76
5	1423481	250.801518488096	76
5	1423836	250.825329417702	76
5	1424011	250.839438041473	76
5	1424215	250.869572989006	76
5	1424460	250.922176385702	76
5	1424767	250.96386902279	76
5	1424829	250.970387262849	76
5	1424976	250.986231027422	76
5	1425148	250.998306087417	76
5	1425335	251.017427068823	76
5	1425566	251.046908425351	76
5	1425686	251.083727716966	76
5	1426312	251.16219690481	76
5	1426441	251.177671168064	76
5	1426735	251.231556387629	76
5	1427098	251.315009080911	76
5	1427224	251.329554167802	76
5	1427414	251.382947379715	76
5	1427578	251.455369770907	76
5	1427767	251.502639786275	76
5	1427893	251.516134636409	76
5	1428017	251.543229969255	76
5	1428146	251.561303421694	76
5	1428617	251.622298791201	76
5	1428767	251.638366803578	76
5	1428812	251.643261470706	76
5	1429116	251.676352169919	76
5	1429243	251.691131650484	76
5	1429448	251.71888427197	76
5	1429529	251.731030440204	76
5	1429671	251.73784754004	76
[...]
850	2268352	383.883469908025	0.91566265060241
850	2270530	384.273234418357	0.9047619047619
850	2271175	384.310025905765	0.91666666666667
850	2282689	385.920554839474	0.90588235294118
850	2282927	385.951476326882	0.91764705882353
850	2286855	386.484899649793	0.90697674418605
850	2287235	386.518061137201	0.91860465116279
850	2288593	386.965418988948	0.90804597701149
850	2289086	386.997620476356	0.91954022988506
850	2292479	387.459253155057	0.90909090909091
850	2292858	387.488894642465	0.92045454545455
850	2301492	389.294414769305	0.91011235955056
850	2301840	389.327576256713	0.92134831460674
850	2312493	391.215878094469	0.91111111111111
850	2312735	391.247439581877	0.92222222222222
850	2316255	391.573062052833	0.91208791208791
850	2316488	391.603983540241	0.92307692307692
850	2319361	392.224894079238	0.91304347826087
850	2319732	392.254215566646	0.92391304347826
850	2330345	393.841125985205	0.91397849462366
850	2330985	393.884876139741	0.9247311827957
850	2355806	397.178894933759	0.91489361702128
850	2356610	397.223796421167	0.92553191489362
850	2369327	399.91761331743	0.91578947368421
850	2369687	399.951094804838	0.92631578947368
850	2373734	400.602073646297	0.91666666666667
850	2374117	400.680891400623	0.90721649484536
850	2374358	400.712452888031	0.91752577319588
850	2379254	401.478344899509	0.90816326530612
850	2379597	401.511826386917	0.91836734693878
850	2383888	402.135244008379	0.90909090909091
850	2384121	402.169045495787	0.91919191919192
850	2393157	403.713352367983	0.91
850	2393599	403.750143855391	0.92
860	1226446	220.303269640775	76
860	1247083	223.173901401529	76
860	1249569	223.548937338528	76
860	1259392	224.859720189341	76
860	1262337	225.275461595581	76
860	1276613	227.691333659177	76
860	1303489	232.389714411441	76
860	1305413	232.60359115514	76
860	1305448	232.611234014497	76
860	1311123	233.414665254875	76
860	1340853	237.712701553478	76
860	1368064	241.993101641992	76
860	1374049	242.793159814077	76
860	1388091	244.728019251925	76
860	1405410	247.717867787518	76
860	1412085	248.812614419349	76
860	1421503	250.430242868904	76
860	1434469	252.450015492992	76
860	1445893	254.251971577887	76
860	1464530	257.304725305684	76
860	1467897	257.776643893366	76
860	1470774	258.270545209062	76
860	1488894	261.098235715133	76
860	1499591	262.916294750316	76
860	1508862	264.099579910279	76
860	1512665	264.549611472157	76
860	1519385	265.556109427949	76
860	1526241	267.020556822555	76
860	1527105	267.108719872081	76
860	1528137	267.265485749842	76
860	1534817	268.255024341291	76
860	1559087	271.856090718094	76
860	1586129	276.461450370145	76
860	1605714	279.770918730939	76
860	1616463	281.690260047354	76
860	1620250	282.479540351522	76
860	1638086	284.820739034728	76
860	1643406	285.85767844771	76
860	1662440	288.824234969284	76
860	1666394	289.519846388683	76
860	1675705	290.897446921086	76
860	1681625	291.540571444957	76
860	1690115	293.080607880514	76
860	1697354	294.337414470248	76
860	1705083	295.923298553	76
860	1717691	298.27796925616	76
860	1720300	298.737481204539	76
860	1724184	299.718723543241	76
860	1736773	301.582085970977	76
860	1750892	304.156533206941	76
860	1769704	306.913495399838	76
860	1770756	307.159143433042	76
860	1794425	310.465489692448	76
860	1798062	311.046804952057	76
860	1835362	317.161061322965	76
860	1875894	323.728027142646	76
860	1891247	325.883395109742	76
860	1899108	326.744132761023	76
860	1946743	333.560476752057	76
860	1958052	334.870466630981	76
860	1981248	338.663443646247	76
860	1988032	339.75906270973	76
860	1999064	341.673525393014	76
860	2018144	344.597854536287	76
860	2033451	347.179839241833	76
860	2044539	349.340354609152	76
860	2055785	351.280597459277	76
860	2056247	351.303854037416	76
860	2078124	354.401410138277	76
860	2100946	358.434788725331	76
860	2102414	358.598765013236	76
860	2128079	362.573628521352	76
860	2138746	364.218068104228	76
860	2148725	366.462781843584	76
860	2151899	366.847171493047	76
860	2152510	366.96372345132	76
860	2157489	367.775238527461	76
860	2159256	368.024181980979	76
860	2194299	372.879521683592	76
860	2194846	372.941835856537	76
860	2195597	372.994725891621	76
860	2219575	377.243820034271	76
860	2225585	378.163406206818	76
860	2225650	378.169493782625	76
860	2228089	378.582321266048	76
860	2234083	379.477497823304	76
860	2234109	379.484500722152	76
860	2234330	379.501747374837	76
860	2236550	379.76739431663	76
860	2237109	379.866536882004	76
860	2277264	385.217346867821	76
860	2280682	385.702186945203	76
860	2289693	387.064711820142	76
860	2331565	394.13282466857	76
860	2348114	396.188582407272	76
860	2350441	396.417572071661	76
860	2368885	399.859030005882	76
860	2384817	402.341487731062	76
860	2413044	406.471309603431	76
860	2416808	407.018473988534	76
862	1227273	220.357237097987	76
862	1248307	223.226802065097	76
862	1250187	223.58700879574	76
862	1260141	224.909355646553	76
862	1262573	225.308303052793	76
862	1278166	227.780889841783	76
862	1303740	232.420884058736	76
862	1306167	232.671201014705	76
862	1306212	232.676415681833	76
862	1311816	233.451824712087	76
862	1369010	242.043233099204	76
862	1374289	242.824401271289	76
862	1389120	244.791601376265	76
862	1405720	247.74814924473	76
862	1413155	248.884335876561	76
862	1421856	250.462444326116	76
862	1434951	252.481896950204	76
862	1446130	254.283853035099	76
862	1464885	257.337246762896	76
862	1468134	257.809485350578	76
862	1471472	258.320356666274	76
862	1489147	261.130117172345	76
862	1500824	263.001454874656	76
862	1510172	264.162503367491	76
862	1513160	264.580532929369	76
862	1519934	265.589590885161	76
862	1526777	267.051478279767	76
862	1527456	267.141561329293	76
862	1528557	267.298007207054	76
862	1536216	268.320843718546	76
862	1559435	271.887012175306	76
862	1586469	276.493651827357	76
862	1605952	279.802160188151	76
862	1616700	281.722141504566	76
862	1620669	282.512061808734	76
862	1638363	284.85486049194	76
862	1643648	285.889879904922	76
862	1662682	288.856116426496	76
862	1676392	290.939516378298	76
862	1681862	291.572452902169	76
862	1690499	293.118359337726	76
862	1697814	294.37708592746	76
862	1705442	295.957420010212	76
862	1717929	298.311450713372	76
862	1720791	298.772992661751	76
862	1724748	299.758715000453	76
862	1737013	301.614927428189	76
862	1751527	304.189852664153	76
862	1769940	306.94697685705	76
862	1770992	307.191664890254	76
862	1794814	310.49833114966	76
862	1798490	311.084236409269	76
862	1835657	317.191662780177	76
862	1876799	323.784444599858	76
862	1891985	325.930646566954	76
862	1899460	326.776334218235	76
862	1947154	333.592998209269	76
862	1982107	338.715175103459	76
862	1988818	339.815686166942	76
862	1999422	341.706046850226	76
862	2018672	344.633733993499	76
862	2034102	347.227300699045	76
862	2044775	349.370636066364	76
862	2057691	351.385849037624	76
862	2057763	351.391063704752	76
862	2078366	354.431051595489	76
862	2101370	358.467310182543	76
862	2102655	358.632566470448	76
862	2139196	364.25677956144	76
862	2149034	366.493703300796	76
862	2152314	366.880332950259	76
862	2153294	367.006704908532	76
862	2157761	367.808079984673	76
862	2160054	368.075273438191	76
862	2194735	372.912043140804	76
862	2195300	372.973397313749	76
862	2196129	373.033437348833	76
862	2220078	377.283057491483	76
862	2226472	378.228357239837	76
862	2228327	378.61388272326	76
862	2234646	379.519519280516	76
862	2235564	379.553045707917	76
862	2236787	379.799915773842	76
862	2237445	379.899058339216	76
862	2277869	385.255418325033	76
862	2281853	385.770550402415	76
862	2289931	387.096593277354	76
862	2331822	394.165026125782	76
862	2348459	396.218863864484	76
862	2350953	396.450891528873	76
862	2369260	399.890911463094	76
862	2385056	402.374649188274	76
862	2413280	406.503511060643	76
862	2417348	407.071165445746	76
863	5873	30	76
863	18744	31.032406909874	76
863	21232	31.428305325909	76
863	32519	32.5990379874	76
863	71075	37.999385969271	76
863	74962	38.538404218434	76
863	98334	41.984192329797	76
863	107900	43.211910974365	76
863	110439	43.673974951009	76
863	122034	45.276563999068	76
863	140079	48.776714236535	76
863	141191	48.934456119512	76
863	150927	50.353815168051	76
863	164911	52.237693493937	76
863	171252	53.242547044713	76
863	183582	55.044234404196	76
863	206074	58.452438394499	76
863	211780	59.6193065632	76
863	213623	59.806328284444	76
863	230035	62.658718499332	76
863	231379	63.038299723734	76
863	259274	67.804622150537	76
863	294524	72.760093265868	76
863	296835	73.049409253729	76
863	304496	74.21320605853	76
863	305615	74.750238766032	76
863	306407	74.875028487006	76
863	318821	76.710692927058	76
863	330989	78.763606096415	76
863	343622	80.440373391991	76
863	354699	82.231356737458	76
863	355922	82.540821247313	76
863	388358	87.697517803945	76
863	396969	88.842245103175	76
863	399906	89.38278094541	76
863	423917	92.3606926656	76
863	427550	92.806944467805	76
863	438161	94.29418018741	76
863	466752	99.287084052236	76
863	473177	100.238506346288	76
863	478484	100.993827624252	76
863	515663	107.311603116023	76
863	528932	109.684707407268	76
863	603615	121.20839758454	76
863	605321	121.391472830471	76
863	607784	121.716710998276	76
863	613522	122.60992346101	76
863	620233	123.711262768124	76
863	621352	123.893083788679	76
863	630514	124.860545516905	76
863	632458	125.167743685858	76
863	647933	127.779605920891	76
863	648918	127.952472951204	76
863	650023	128.052422280547	76
863	658509	129.425343525857	76
863	664342	130.222788239853	76
863	665593	130.313607024855	76
863	674266	131.828215424749	76
863	714509	139.046826826323	76
863	719284	139.737224663138	76
863	720873	139.927778734772	76
863	724552	140.654710764222	76
863	737418	142.860178790448	76
863	740651	143.374659672561	76
863	752334	144.996546316192	76
863	755790	145.647836762793	76
863	760892	147.000305751392	76
863	766187	147.828605481274	76
863	780045	149.752706390199	76
863	813987	154.968756960067	76
863	833255	158.26201514252	76
863	837008	159.00662004075	76
863	859517	162.858525148573	76
863	915362	170.543658755344	76
863	953207	177.020151025344	76
863	953670	177.09536054924	76
863	964078	178.917845735433	76
863	968603	179.445100554078	76
863	973101	180.311915162606	76
863	980560	181.356145601711	76
863	992339	182.928482502757	76
863	993166	183.07674692421	76
863	1012647	186.233505055952	76
863	1045430	191.644394225668	76
863	1055000	193.526186056911	76
863	1097800	200.726617144653	76
863	1151110	209.177685681011	76
863	1161299	210.529002363974	76
863	1173039	212.136920431811	76
863	1189365	214.426646444749	76
863	1193511	214.974894270718	76
863	1197338	215.41501068187	76
863	1197362	215.421897281475	76
863	1210143	217.178613200879	76
863	1221628	219.587346975158	76
863	2433856	409.543439775495	76
863	2435269	409.701340813417	76
863	2436362	409.956544527077	76
863	2485993	417.330485946362	76
863	2486845	417.514236705503	76
863	2508934	421.270856589202	76
863	2529979	424.429220319251	76
863	2546988	427.127508610116	76
863	2558312	428.952787986637	76
863	2574122	431.402508606934	76
863	2597573	434.635462054052	76
863	2635988	440.435825273649	76
863	2644629	442.013709535535	76
863	2649481	442.755659680369	76
863	2654765	443.459531508339	76
863	2713862	452.866396131555	76
863	2718257	453.501577539469	76
863	2718682	453.545431406949	76
863	2746435	458.405450749209	76
863	2762266	461.207997840109	76
863	2771694	462.702130817684	76
863	2794879	465.944320430007	76
863	2815908	469.06317972321	76
863	2832699	471.834797535227	76
863	2837136	472.117195465519	76
863	2851032	474.539137092874	76
863	2859720	475.530079996826	76
863	2862662	475.934759872786	76
864	1226446	220.303269640775	-nan
864	1227273	220.357237097987	1
864	1247083	223.173901401529	0.5
864	1248307	223.226802065097	1
864	1249569	223.548937338528	0.66666666666667
864	1250187	223.58700879574	1
864	1259392	224.859720189341	0.75
864	1260141	224.909355646553	1
864	1262337	225.275461595581	0.8
864	1262573	225.308303052793	1
864	1276613	227.691333659177	0.83333333333333
864	1278166	227.780889841783	1
864	1303489	232.389714411441	0.85714285714286
864	1303740	232.420884058736	1
864	1305413	232.60359115514	0.875
864	1305448	232.611234014497	0.77777777777778
864	1306167	232.671201014705	0.88888888888889
864	1306212	232.676415681833	1
864	1311123	233.414665254875	0.9
864	1311816	233.451824712087	1
864	1340853	237.712701553478	0.90909090909091
864	1368064	241.993101641992	0.83333333333333
864	1369010	242.043233099204	0.91666666666667
864	1374049	242.793159814077	0.84615384615385
864	1374289	242.824401271289	0.92307692307692
864	1388091	244.728019251925	0.85714285714286
864	1389120	244.791601376265	0.92857142857143
864	1405410	247.717867787518	0.86666666666667
864	1405720	247.74814924473	0.93333333333333
864	1412085	248.812614419349	0.875
864	1413155	248.884335876561	0.9375
864	1421503	250.430242868904	0.88235294117647
864	1421856	250.462444326116	0.94117647058824
864	1434469	252.450015492992	0.88888888888889
864	1434951	252.481896950204	0.94444444444444
864	1445893	254.251971577887	0.89473684210526
864	1446130	254.283853035099	0.94736842105263
864	1464530	257.304725305684	0.9
864	1464885	257.337246762896	0.95
864	1467897	257.776643893366	0.9047619047619
864	1468134	257.809485350578	0.95238095238095
864	1470774	258.270545209062	0.90909090909091
864	1471472	258.320356666274	0.95454545454545
864	1488894	261.098235715133	0.91304347826087
864	1489147	261.130117172345	0.95652173913043
864	1499591	262.916294750316	0.91666666666667
864	1500824	263.001454874656	0.95833333333333
864	1508862	264.099579910279	0.92
864	1510172	264.162503367491	0.96
864	1512665	264.549611472157	0.92307692307692
864	1513160	264.580532929369	0.96153846153846
864	1519385	265.556109427949	0.92592592592593
864	1519934	265.589590885161	0.96296296296296
864	1526241	267.020556822555	0.92857142857143
864	1526777	267.051478279767	0.96428571428571
864	1527105	267.108719872081	0.93103448275862
864	1527456	267.141561329293	0.96551724137931
864	1528137	267.265485749842	0.93333333333333
864	1528557	267.298007207054	0.96666666666667
864	1534817	268.255024341291	0.93548387096774
864	1536216	268.320843718546	0.96774193548387
864	1559087	271.856090718094	0.9375
864	1559435	271.887012175306	0.96875
864	1586129	276.461450370145	0.93939393939394
864	1586469	276.493651827357	0.96969696969697
864	1605714	279.770918730939	0.94117647058824
864	1605952	279.802160188151	0.97058823529412
864	1616463	281.690260047354	0.94285714285714
864	1616700	281.722141504566	0.97142857142857
864	1620250	282.479540351522	0.94444444444444
864	1620669	282.512061808734	0.97222222222222
864	1638086	284.820739034728	0.94594594594595
864	1638363	284.85486049194	0.97297297297297
864	1643406	285.85767844771	0.94736842105263
864	1643648	285.889879904922	0.97368421052632
864	1662440	288.824234969284	0.94871794871795
864	1662682	288.856116426496	0.97435897435897
864	1666394	289.519846388683	0.95
864	1675705	290.897446921086	0.92682926829268
864	1676392	290.939516378298	0.95121951219512
864	1681625	291.540571444957	0.92857142857143
864	1681862	291.572452902169	0.95238095238095
864	1690115	293.080607880514	0.93023255813953
864	1690499	293.118359337726	0.95348837209302
864	1697354	294.337414470248	0.93181818181818
864	1697814	294.37708592746	0.95454545454545
864	1705083	295.923298553	0.93333333333333
864	1705442	295.957420010212	0.95555555555556
864	1717691	298.27796925616	0.93478260869565
864	1717929	298.311450713372	0.95652173913043
864	1720300	298.737481204539	0.93617021276596
864	1720791	298.772992661751	0.95744680851064
864	1724184	299.718723543241	0.9375
864	1724748	299.758715000453	0.95833333333333
864	1736773	301.582085970977	0.93877551020408
864	1737013	301.614927428189	0.95918367346939
864	1750892	304.156533206941	0.94
864	1751527	304.189852664153	0.96
864	1769704	306.913495399838	0.94117647058824
864	1769940	306.94697685705	0.96078431372549
864	1770756	307.159143433042	0.94230769230769
864	1770992	307.191664890254	0.96153846153846
864	1794425	310.465489692448	0.94339622641509
864	1794814	310.49833114966	0.9622641509434
864	1798062	311.046804952057	0.94444444444444
864	1798490	311.084236409269	0.96296296296296
864	1835362	317.161061322965	0.94545454545455
864	1835657	317.191662780177	0.96363636363636
864	1875894	323.728027142646	0.94642857142857
864	1876799	323.784444599858	0.96428571428571
864	1891247	325.883395109742	0.94736842105263
864	1891985	325.930646566954	0.96491228070175
864	1899108	326.744132761023	0.94827586206897
864	1899460	326.776334218235	0.96551724137931
864	1946743	333.560476752057	0.94915254237288
864	1947154	333.592998209269	0.96610169491525
864	1958052	334.870466630981	0.95
864	1981248	338.663443646247	0.9344262295082
864	1982107	338.715175103459	0.95081967213115
864	1988032	339.75906270973	0.93548387096774
864	1988818	339.815686166942	0.95161290322581
864	1999064	341.673525393014	0.93650793650794
864	1999422	341.706046850226	0.95238095238095
864	2018144	344.597854536287	0.9375
864	2018672	344.633733993499	0.953125
864	2033451	347.179839241833	0.93846153846154
864	2034102	347.227300699045	0.95384615384615
864	2044539	349.340354609152	0.93939393939394
864	2044775	349.370636066364	0.95454545454545
864	2055785	351.280597459277	0.94029850746269
864	2056247	351.303854037416	0.92647058823529
864	2057691	351.385849037624	0.94117647058824
864	2057763	351.391063704752	0.95588235294118
864	2078124	354.401410138277	0.94202898550725
864	2078366	354.431051595489	0.95652173913043
864	2100946	358.434788725331	0.94285714285714
864	2101370	358.467310182543	0.95714285714286
864	2102414	358.598765013236	0.94366197183099
864	2102655	358.632566470448	0.95774647887324
864	2128079	362.573628521352	0.94444444444444
864	2138746	364.218068104228	0.93150684931507
864	2139196	364.25677956144	0.94520547945205
864	2148725	366.462781843584	0.93243243243243
864	2149034	366.493703300796	0.94594594594595
864	2151899	366.847171493047	0.93333333333333
864	2152314	366.880332950259	0.94666666666667
864	2152510	366.96372345132	0.93421052631579
864	2153294	367.006704908532	0.94736842105263
864	2157489	367.775238527461	0.93506493506494
864	2157761	367.808079984673	0.94805194805195
864	2159256	368.024181980979	0.93589743589744
864	2160054	368.075273438191	0.94871794871795
864	2194299	372.879521683592	0.93670886075949
864	2194735	372.912043140804	0.94936708860759
864	2194846	372.941835856537	0.9375
864	2195300	372.973397313749	0.95
864	2195597	372.994725891621	0.93827160493827
864	2196129	373.033437348833	0.95061728395062
864	2219575	377.243820034271	0.9390243902439
864	2220078	377.283057491483	0.95121951219512
864	2225585	378.163406206818	0.93975903614458
864	2225650	378.169493782625	0.92857142857143
864	2226472	378.228357239837	0.94047619047619
864	2228089	378.582321266048	0.92941176470588
864	2228327	378.61388272326	0.94117647058824
864	2234083	379.477497823304	0.93023255813953
864	2234109	379.484500722152	0.91954022988506
864	2234330	379.501747374837	0.90909090909091
864	2234646	379.519519280516	0.92045454545455
864	2235564	379.553045707917	0.93181818181818
864	2236550	379.76739431663	0.92134831460674
864	2236787	379.799915773842	0.93258426966292
864	2237109	379.866536882004	0.92222222222222
864	2237445	379.899058339216	0.93333333333333
864	2277264	385.217346867821	0.92307692307692
864	2277869	385.255418325033	0.93406593406593
864	2280682	385.702186945203	0.92391304347826
864	2281853	385.770550402415	0.93478260869565
864	2289693	387.064711820142	0.9247311827957
864	2289931	387.096593277354	0.93548387096774
864	2331565	394.13282466857	0.92553191489362
864	2331822	394.165026125782	0.93617021276596
864	2348114	396.188582407272	0.92631578947368
864	2348459	396.218863864484	0.93684210526316
864	2350441	396.417572071661	0.92708333333333
864	2350953	396.450891528873	0.9375
864	2368885	399.859030005882	0.92783505154639
864	2369260	399.890911463094	0.93814432989691
864	2384817	402.341487731062	0.92857142857143
864	2385056	402.374649188274	0.93877551020408
864	2413044	406.471309603431	0.92929292929293
864	2413280	406.503511060643	0.93939393939394
864	2416808	407.018473988534	0.93
864	2417348	407.071165445746	0.94
