version 2
run CSMA-0-20160912-13:06:55-14488
attr beaconInterval 10s
attr configname CSMA
attr datetime 20160912-13:06:55
attr experiment CSMA
attr inifile simulations/omnetpp.ini
attr iterationvars "$packetLength=76B, $sendInt=2, $beaconInterval=10s, $0=10s/2, $1=3 * 10s"
attr iterationvars2 "$packetLength=76B, $sendInt=2, $beaconInterval=10s, $0=10s/2, $1=3 * 10s, $repetition=0"
attr measurement "$packetLength=76B, $sendInt=2, $beaconInterval=10s, $0=10s/2, $1=3 * 10s"
attr network multi_gateway.Net802154MultiGateway
attr packetLength 76B
attr processid 14488
attr repetition 0
attr replication #0
attr resultdir ../results
attr runnumber 0
attr seedset 0
attr sendInt 2
param **.configurator.addStaticRoutes false
param **.dumpRoutes false
param **.dumpTopology false
param **.host[*].**.gpsr.beaconInterval "${beaconInterval = 10s}"
param **.host[*].**.gpsr.maxJitter ${$beaconInterval/2}
param **.host[*].**.gpsr.neighborValidityInterval "${3 * $beaconInterval}"
param **.host[*].**.gpsr.positionByteLength "2 B"
param **.host[*].**.gpsr.routingStrategy "\"StraightestPath\""
param **.host[*].**.trafficgen.continueSendingDummyPackets true
param **.host[*].**.trafficgen.coolDownDuration 15s
param **.host[*].**.trafficgen.destAddresses "\"host[0].wrappedHost(modulepath)\""
param **.host[*].**.trafficgen.packetLength "${packetLength = 76B}"
param **.host[*].**.trafficgen.sendInterval "exponential(${sendInt=1.0..2.5 step 0.25}s)"
param **.host[*].**.trafficgen.warmUpDuration 160s
param **.host[*].**.wlan[*].mac.queueLength 30
param **.host[*].**.wlan[*].macType "\"Ieee802154NarrowbandMac\""
param **.host[*].**.wlan[*].radio.receiver.minInterferencePower "-100 dBm"
param **.host[*].**.wlan[*].radio.transmitter.power "0.0040 W"
param **.host[*].hostType "\"SimpleHost\""
param **.host[*].mobilityType "\"StaticConcentricWrappingMobility\""
param **.host[0].**.trafficgen.numPackets 0
param **.host[1..].**.trafficgen.numPackets 100
param **.numHosts 62
param **.radioMedium.rangeFilter "\"interferenceRange\""
param **.routingTable.addressType "\"modulepath\""
param **.routingTableType "\"GenericRoutingTable\""

vector 9  Net802154MultiGateway.host[0].wrappedHost.trafficgen  sentDummyPk:vector(packetBytes)  ETV
attr interpolationmode  none
attr source  sentDummyPk
attr title  "dummy packets sent, vector(packetBytes)"
vector 23  Net802154MultiGateway.host[1].wrappedHost.trafficgen  sentDummyPk:vector(packetBytes)  ETV
attr interpolationmode  none
attr source  sentDummyPk
attr title  "dummy packets sent, vector(packetBytes)"
vector 37  Net802154MultiGateway.host[2].wrappedHost.trafficgen  sentDummyPk:vector(packetBytes)  ETV
attr interpolationmode  none
attr source  sentDummyPk
attr title  "dummy packets sent, vector(packetBytes)"
vector 51  Net802154MultiGateway.host[3].wrappedHost.trafficgen  sentDummyPk:vector(packetBytes)  ETV
attr interpolationmode  none
attr source  sentDummyPk
attr title  "dummy packets sent, vector(packetBytes)"
vector 65  Net802154MultiGateway.host[4].wrappedHost.trafficgen  sentDummyPk:vector(packetBytes)  ETV
attr interpolationmode  none
attr source  sentDummyPk
attr title  "dummy packets sent, vector(packetBytes)"
vector 79  Net802154MultiGateway.host[5].wrappedHost.trafficgen  sentDummyPk:vector(packetBytes)  ETV
attr interpolationmode  none
attr source  sentDummyPk
attr title  "dummy packets sent, vector(packetBytes)"
vector 93  Net802154MultiGateway.host[6].wrappedHost.trafficgen  sentDummyPk:vector(packetBytes)  ETV
attr interpolationmode  none
attr source  sentDummyPk
attr title  "dummy packets sent, vector(packetBytes)"
vector 107  Net802154MultiGateway.host[7].wrappedHost.trafficgen  sentDummyPk:vector(packetBytes)  ETV
attr interpolationmode  none
attr source  sentDummyPk
attr title  "dummy packets sent, vector(packetBytes)"
vector 121  Net802154MultiGateway.host[8].wrappedHost.trafficgen  sentDummyPk:vector(packetBytes)  ETV
attr interpolationmode  none
attr source  sentDummyPk
attr title  "dummy packets sent, vector(packetBytes)"
vector 135  Net802154MultiGateway.host[9].wrappedHost.trafficgen  sentDummyPk:vector(packetBytes)  ETV
attr interpolationmode  none
attr source  sentDummyPk
attr title  "dummy packets sent, vector(packetBytes)"
vector 149  Net802154MultiGateway.host[10].wrappedHost.trafficgen  sentDummyPk:vector(packetBytes)  ETV
attr interpolationmode  none
attr source  sentDummyPk
attr title  "dummy packets sent, vector(packetBytes)"
vector 163  Net802154MultiGateway.host[11].wrappedHost.trafficgen  sentDummyPk:vector(packetBytes)  ETV
attr interpolationmode  none
attr source  sentDummyPk
attr title  "dummy packets sent, vector(packetBytes)"
vector 177  Net802154MultiGateway.host[12].wrappedHost.trafficgen  sentDummyPk:vector(packetBytes)  ETV
attr interpolationmode  none
attr source  sentDummyPk
attr title  "dummy packets sent, vector(packetBytes)"
vector 191  Net802154MultiGateway.host[13].wrappedHost.trafficgen  sentDummyPk:vector(packetBytes)  ETV
attr interpolationmode  none
attr source  sentDummyPk
attr title  "dummy packets sent, vector(packetBytes)"
vector 205  Net802154MultiGateway.host[14].wrappedHost.trafficgen  sentDummyPk:vector(packetBytes)  ETV
attr interpolationmode  none
attr source  sentDummyPk
attr title  "dummy packets sent, vector(packetBytes)"
vector 219  Net802154MultiGateway.host[15].wrappedHost.trafficgen  sentDummyPk:vector(packetBytes)  ETV
attr interpolationmode  none
attr source  sentDummyPk
attr title  "dummy packets sent, vector(packetBytes)"
vector 233  Net802154MultiGateway.host[16].wrappedHost.trafficgen  sentDummyPk:vector(packetBytes)  ETV
attr interpolationmode  none
attr source  sentDummyPk
attr title  "dummy packets sent, vector(packetBytes)"
vector 247  Net802154MultiGateway.host[17].wrappedHost.trafficgen  sentDummyPk:vector(packetBytes)  ETV
attr interpolationmode  none
attr source  sentDummyPk
attr title  "dummy packets sent, vector(packetBytes)"
vector 261  Net802154MultiGateway.host[18].wrappedHost.trafficgen  sentDummyPk:vector(packetBytes)  ETV
attr interpolationmode  none
attr source  sentDummyPk
attr title  "dummy packets sent, vector(packetBytes)"
vector 275  Net802154MultiGateway.host[19].wrappedHost.trafficgen  sentDummyPk:vector(packetBytes)  ETV
attr interpolationmode  none
attr source  sentDummyPk
attr title  "dummy packets sent, vector(packetBytes)"
vector 289  Net802154MultiGateway.host[20].wrappedHost.trafficgen  sentDummyPk:vector(packetBytes)  ETV
attr interpolationmode  none
attr source  sentDummyPk
attr title  "dummy packets sent, vector(packetBytes)"
vector 303  Net802154MultiGateway.host[21].wrappedHost.trafficgen  sentDummyPk:vector(packetBytes)  ETV
attr interpolationmode  none
attr source  sentDummyPk
attr title  "dummy packets sent, vector(packetBytes)"
vector 317  Net802154MultiGateway.host[22].wrappedHost.trafficgen  sentDummyPk:vector(packetBytes)  ETV
attr interpolationmode  none
attr source  sentDummyPk
attr title  "dummy packets sent, vector(packetBytes)"
vector 331  Net802154MultiGateway.host[23].wrappedHost.trafficgen  sentDummyPk:vector(packetBytes)  ETV
attr interpolationmode  none
attr source  sentDummyPk
attr title  "dummy packets sent, vector(packetBytes)"
vector 345  Net802154MultiGateway.host[24].wrappedHost.trafficgen  sentDummyPk:vector(packetBytes)  ETV
attr interpolationmode  none
attr source  sentDummyPk
attr title  "dummy packets sent, vector(packetBytes)"
vector 359  Net802154MultiGateway.host[25].wrappedHost.trafficgen  sentDummyPk:vector(packetBytes)  ETV
attr interpolationmode  none
attr source  sentDummyPk
attr title  "dummy packets sent, vector(packetBytes)"
vector 373  Net802154MultiGateway.host[26].wrappedHost.trafficgen  sentDummyPk:vector(packetBytes)  ETV
attr interpolationmode  none
attr source  sentDummyPk
attr title  "dummy packets sent, vector(packetBytes)"
vector 387  Net802154MultiGateway.host[27].wrappedHost.trafficgen  sentDummyPk:vector(packetBytes)  ETV
attr interpolationmode  none
attr source  sentDummyPk
attr title  "dummy packets sent, vector(packetBytes)"
vector 401  Net802154MultiGateway.host[28].wrappedHost.trafficgen  sentDummyPk:vector(packetBytes)  ETV
attr interpolationmode  none
attr source  sentDummyPk
attr title  "dummy packets sent, vector(packetBytes)"
vector 415  Net802154MultiGateway.host[29].wrappedHost.trafficgen  sentDummyPk:vector(packetBytes)  ETV
attr interpolationmode  none
attr source  sentDummyPk
attr title  "dummy packets sent, vector(packetBytes)"
vector 429  Net802154MultiGateway.host[30].wrappedHost.trafficgen  sentDummyPk:vector(packetBytes)  ETV
attr interpolationmode  none
attr source  sentDummyPk
attr title  "dummy packets sent, vector(packetBytes)"
vector 443  Net802154MultiGateway.host[31].wrappedHost.trafficgen  sentDummyPk:vector(packetBytes)  ETV
attr interpolationmode  none
attr source  sentDummyPk
attr title  "dummy packets sent, vector(packetBytes)"
vector 457  Net802154MultiGateway.host[32].wrappedHost.trafficgen  sentDummyPk:vector(packetBytes)  ETV
attr interpolationmode  none
attr source  sentDummyPk
attr title  "dummy packets sent, vector(packetBytes)"
vector 471  Net802154MultiGateway.host[33].wrappedHost.trafficgen  sentDummyPk:vector(packetBytes)  ETV
attr interpolationmode  none
attr source  sentDummyPk
attr title  "dummy packets sent, vector(packetBytes)"
vector 485  Net802154MultiGateway.host[34].wrappedHost.trafficgen  sentDummyPk:vector(packetBytes)  ETV
attr interpolationmode  none
attr source  sentDummyPk
attr title  "dummy packets sent, vector(packetBytes)"
vector 499  Net802154MultiGateway.host[35].wrappedHost.trafficgen  sentDummyPk:vector(packetBytes)  ETV
attr interpolationmode  none
attr source  sentDummyPk
attr title  "dummy packets sent, vector(packetBytes)"
vector 513  Net802154MultiGateway.host[36].wrappedHost.trafficgen  sentDummyPk:vector(packetBytes)  ETV
attr interpolationmode  none
attr source  sentDummyPk
attr title  "dummy packets sent, vector(packetBytes)"
vector 527  Net802154MultiGateway.host[37].wrappedHost.trafficgen  sentDummyPk:vector(packetBytes)  ETV
attr interpolationmode  none
attr source  sentDummyPk
attr title  "dummy packets sent, vector(packetBytes)"
vector 541  Net802154MultiGateway.host[38].wrappedHost.trafficgen  sentDummyPk:vector(packetBytes)  ETV
attr interpolationmode  none
attr source  sentDummyPk
attr title  "dummy packets sent, vector(packetBytes)"
vector 555  Net802154MultiGateway.host[39].wrappedHost.trafficgen  sentDummyPk:vector(packetBytes)  ETV
attr interpolationmode  none
attr source  sentDummyPk
attr title  "dummy packets sent, vector(packetBytes)"
vector 569  Net802154MultiGateway.host[40].wrappedHost.trafficgen  sentDummyPk:vector(packetBytes)  ETV
attr interpolationmode  none
attr source  sentDummyPk
attr title  "dummy packets sent, vector(packetBytes)"
vector 583  Net802154MultiGateway.host[41].wrappedHost.trafficgen  sentDummyPk:vector(packetBytes)  ETV
attr interpolationmode  none
attr source  sentDummyPk
attr title  "dummy packets sent, vector(packetBytes)"
vector 597  Net802154MultiGateway.host[42].wrappedHost.trafficgen  sentDummyPk:vector(packetBytes)  ETV
attr interpolationmode  none
attr source  sentDummyPk
attr title  "dummy packets sent, vector(packetBytes)"
vector 611  Net802154MultiGateway.host[43].wrappedHost.trafficgen  sentDummyPk:vector(packetBytes)  ETV
attr interpolationmode  none
attr source  sentDummyPk
attr title  "dummy packets sent, vector(packetBytes)"
vector 625  Net802154MultiGateway.host[44].wrappedHost.trafficgen  sentDummyPk:vector(packetBytes)  ETV
attr interpolationmode  none
attr source  sentDummyPk
attr title  "dummy packets sent, vector(packetBytes)"
vector 639  Net802154MultiGateway.host[45].wrappedHost.trafficgen  sentDummyPk:vector(packetBytes)  ETV
attr interpolationmode  none
attr source  sentDummyPk
attr title  "dummy packets sent, vector(packetBytes)"
vector 653  Net802154MultiGateway.host[46].wrappedHost.trafficgen  sentDummyPk:vector(packetBytes)  ETV
attr interpolationmode  none
attr source  sentDummyPk
attr title  "dummy packets sent, vector(packetBytes)"
vector 667  Net802154MultiGateway.host[47].wrappedHost.trafficgen  sentDummyPk:vector(packetBytes)  ETV
attr interpolationmode  none
attr source  sentDummyPk
attr title  "dummy packets sent, vector(packetBytes)"
vector 681  Net802154MultiGateway.host[48].wrappedHost.trafficgen  sentDummyPk:vector(packetBytes)  ETV
attr interpolationmode  none
attr source  sentDummyPk
attr title  "dummy packets sent, vector(packetBytes)"
vector 695  Net802154MultiGateway.host[49].wrappedHost.trafficgen  sentDummyPk:vector(packetBytes)  ETV
attr interpolationmode  none
attr source  sentDummyPk
attr title  "dummy packets sent, vector(packetBytes)"
vector 709  Net802154MultiGateway.host[50].wrappedHost.trafficgen  sentDummyPk:vector(packetBytes)  ETV
attr interpolationmode  none
attr source  sentDummyPk
attr title  "dummy packets sent, vector(packetBytes)"
vector 723  Net802154MultiGateway.host[51].wrappedHost.trafficgen  sentDummyPk:vector(packetBytes)  ETV
attr interpolationmode  none
attr source  sentDummyPk
attr title  "dummy packets sent, vector(packetBytes)"
vector 737  Net802154MultiGateway.host[52].wrappedHost.trafficgen  sentDummyPk:vector(packetBytes)  ETV
attr interpolationmode  none
attr source  sentDummyPk
attr title  "dummy packets sent, vector(packetBytes)"
vector 751  Net802154MultiGateway.host[53].wrappedHost.trafficgen  sentDummyPk:vector(packetBytes)  ETV
attr interpolationmode  none
attr source  sentDummyPk
attr title  "dummy packets sent, vector(packetBytes)"
vector 765  Net802154MultiGateway.host[54].wrappedHost.trafficgen  sentDummyPk:vector(packetBytes)  ETV
attr interpolationmode  none
attr source  sentDummyPk
attr title  "dummy packets sent, vector(packetBytes)"
vector 779  Net802154MultiGateway.host[55].wrappedHost.trafficgen  sentDummyPk:vector(packetBytes)  ETV
attr interpolationmode  none
attr source  sentDummyPk
attr title  "dummy packets sent, vector(packetBytes)"
vector 793  Net802154MultiGateway.host[56].wrappedHost.trafficgen  sentDummyPk:vector(packetBytes)  ETV
attr interpolationmode  none
attr source  sentDummyPk
attr title  "dummy packets sent, vector(packetBytes)"
vector 807  Net802154MultiGateway.host[57].wrappedHost.trafficgen  sentDummyPk:vector(packetBytes)  ETV
attr interpolationmode  none
attr source  sentDummyPk
attr title  "dummy packets sent, vector(packetBytes)"
vector 821  Net802154MultiGateway.host[58].wrappedHost.trafficgen  sentDummyPk:vector(packetBytes)  ETV
attr interpolationmode  none
attr source  sentDummyPk
attr title  "dummy packets sent, vector(packetBytes)"
vector 835  Net802154MultiGateway.host[59].wrappedHost.trafficgen  sentDummyPk:vector(packetBytes)  ETV
attr interpolationmode  none
attr source  sentDummyPk
attr title  "dummy packets sent, vector(packetBytes)"
vector 849  Net802154MultiGateway.host[60].wrappedHost.trafficgen  sentDummyPk:vector(packetBytes)  ETV
attr interpolationmode  none
attr source  sentDummyPk
attr title  "dummy packets sent, vector(packetBytes)"
vector 863  Net802154MultiGateway.host[61].wrappedHost.trafficgen  sentDummyPk:vector(packetBytes)  ETV
attr interpolationmode  none
attr source  sentDummyPk
attr title  "dummy packets sent, vector(packetBytes)"
vector 580  Net802154MultiGateway.host[41].wrappedHost.trafficgen  sentPk:vector(packetBytes)  ETV
attr interpolationmode  none
attr source  sentPk
attr title  "packets sent, vector(packetBytes)"
vector 584  Net802154MultiGateway.host[41].wrappedHost.trafficgen  PRR:vector  ETV
attr interpolationmode  none
attr source  count(sinkRcvdPk)/count(sentPk)
attr title  "PRR, vector"
vector 582  Net802154MultiGateway.host[41].wrappedHost.trafficgen  sinkRcvdPk:vector(packetBytes)  ETV
attr interpolationmode  none
attr source  sinkRcvdPk
attr title  "own packets received by sink, vector(packetBytes)"
vector 5  Net802154MultiGateway.host[0].wrappedHost.trafficgen  rcvdPk:vector(packetBytes)  ETV
attr interpolationmode  none
attr source  rcvdPk
attr title  "packets received, vector(packetBytes)"
vector 7  Net802154MultiGateway.host[0].wrappedHost.trafficgen  endToEndDelay:vector  ETV
attr interpolationmode  none
attr source  messageAge(rcvdPk)
attr title  "end-to-end delay, vector"
attr unit  s
vector 804  Net802154MultiGateway.host[57].wrappedHost.trafficgen  sentPk:vector(packetBytes)  ETV
attr interpolationmode  none
attr source  sentPk
attr title  "packets sent, vector(packetBytes)"
vector 808  Net802154MultiGateway.host[57].wrappedHost.trafficgen  PRR:vector  ETV
attr interpolationmode  none
attr source  count(sinkRcvdPk)/count(sentPk)
attr title  "PRR, vector"
vector 806  Net802154MultiGateway.host[57].wrappedHost.trafficgen  sinkRcvdPk:vector(packetBytes)  ETV
attr interpolationmode  none
attr source  sinkRcvdPk
attr title  "own packets received by sink, vector(packetBytes)"
vector 230  Net802154MultiGateway.host[16].wrappedHost.trafficgen  sentPk:vector(packetBytes)  ETV
attr interpolationmode  none
attr source  sentPk
attr title  "packets sent, vector(packetBytes)"
vector 234  Net802154MultiGateway.host[16].wrappedHost.trafficgen  PRR:vector  ETV
attr interpolationmode  none
attr source  count(sinkRcvdPk)/count(sentPk)
attr title  "PRR, vector"
vector 776  Net802154MultiGateway.host[55].wrappedHost.trafficgen  sentPk:vector(packetBytes)  ETV
attr interpolationmode  none
attr source  sentPk
attr title  "packets sent, vector(packetBytes)"
vector 780  Net802154MultiGateway.host[55].wrappedHost.trafficgen  PRR:vector  ETV
attr interpolationmode  none
attr source  count(sinkRcvdPk)/count(sentPk)
attr title  "PRR, vector"
vector 496  Net802154MultiGateway.host[35].wrappedHost.trafficgen  sentPk:vector(packetBytes)  ETV
attr interpolationmode  none
attr source  sentPk
attr title  "packets sent, vector(packetBytes)"
vector 500  Net802154MultiGateway.host[35].wrappedHost.trafficgen  PRR:vector  ETV
attr interpolationmode  none
attr source  count(sinkRcvdPk)/count(sentPk)
attr title  "PRR, vector"
vector 778  Net802154MultiGateway.host[55].wrappedHost.trafficgen  sinkRcvdPk:vector(packetBytes)  ETV
attr interpolationmode  none
attr source  sinkRcvdPk
attr title  "own packets received by sink, vector(packetBytes)"
vector 232  Net802154MultiGateway.host[16].wrappedHost.trafficgen  sinkRcvdPk:vector(packetBytes)  ETV
attr interpolationmode  none
attr source  sinkRcvdPk
attr title  "own packets received by sink, vector(packetBytes)"
vector 498  Net802154MultiGateway.host[35].wrappedHost.trafficgen  sinkRcvdPk:vector(packetBytes)  ETV
attr interpolationmode  none
attr source  sinkRcvdPk
attr title  "own packets received by sink, vector(packetBytes)"
vector 356  Net802154MultiGateway.host[25].wrappedHost.trafficgen  sentPk:vector(packetBytes)  ETV
attr interpolationmode  none
attr source  sentPk
attr title  "packets sent, vector(packetBytes)"
vector 360  Net802154MultiGateway.host[25].wrappedHost.trafficgen  PRR:vector  ETV
attr interpolationmode  none
attr source  count(sinkRcvdPk)/count(sentPk)
attr title  "PRR, vector"
vector 358  Net802154MultiGateway.host[25].wrappedHost.trafficgen  sinkRcvdPk:vector(packetBytes)  ETV
attr interpolationmode  none
attr source  sinkRcvdPk
attr title  "own packets received by sink, vector(packetBytes)"
vector 510  Net802154MultiGateway.host[36].wrappedHost.trafficgen  sentPk:vector(packetBytes)  ETV
attr interpolationmode  none
attr source  sentPk
attr title  "packets sent, vector(packetBytes)"
vector 514  Net802154MultiGateway.host[36].wrappedHost.trafficgen  PRR:vector  ETV
attr interpolationmode  none
attr source  count(sinkRcvdPk)/count(sentPk)
attr title  "PRR, vector"
vector 818  Net802154MultiGateway.host[58].wrappedHost.trafficgen  sentPk:vector(packetBytes)  ETV
attr interpolationmode  none
attr source  sentPk
attr title  "packets sent, vector(packetBytes)"
vector 822  Net802154MultiGateway.host[58].wrappedHost.trafficgen  PRR:vector  ETV
attr interpolationmode  none
attr source  count(sinkRcvdPk)/count(sentPk)
attr title  "PRR, vector"
vector 512  Net802154MultiGateway.host[36].wrappedHost.trafficgen  sinkRcvdPk:vector(packetBytes)  ETV
attr interpolationmode  none
attr source  sinkRcvdPk
attr title  "own packets received by sink, vector(packetBytes)"
vector 342  Net802154MultiGateway.host[24].wrappedHost.trafficgen  sentPk:vector(packetBytes)  ETV
attr interpolationmode  none
attr source  sentPk
attr title  "packets sent, vector(packetBytes)"
vector 346  Net802154MultiGateway.host[24].wrappedHost.trafficgen  PRR:vector  ETV
attr interpolationmode  none
attr source  count(sinkRcvdPk)/count(sentPk)
attr title  "PRR, vector"
vector 820  Net802154MultiGateway.host[58].wrappedHost.trafficgen  sinkRcvdPk:vector(packetBytes)  ETV
attr interpolationmode  none
attr source  sinkRcvdPk
attr title  "own packets received by sink, vector(packetBytes)"
vector 344  Net802154MultiGateway.host[24].wrappedHost.trafficgen  sinkRcvdPk:vector(packetBytes)  ETV
attr interpolationmode  none
attr source  sinkRcvdPk
attr title  "own packets received by sink, vector(packetBytes)"
vector 790  Net802154MultiGateway.host[56].wrappedHost.trafficgen  sentPk:vector(packetBytes)  ETV
attr interpolationmode  none
attr source  sentPk
attr title  "packets sent, vector(packetBytes)"
vector 794  Net802154MultiGateway.host[56].wrappedHost.trafficgen  PRR:vector  ETV
attr interpolationmode  none
attr source  count(sinkRcvdPk)/count(sentPk)
attr title  "PRR, vector"
vector 524  Net802154MultiGateway.host[37].wrappedHost.trafficgen  sentPk:vector(packetBytes)  ETV
attr interpolationmode  none
attr source  sentPk
attr title  "packets sent, vector(packetBytes)"
vector 528  Net802154MultiGateway.host[37].wrappedHost.trafficgen  PRR:vector  ETV
attr interpolationmode  none
attr source  count(sinkRcvdPk)/count(sentPk)
attr title  "PRR, vector"
vector 792  Net802154MultiGateway.host[56].wrappedHost.trafficgen  sinkRcvdPk:vector(packetBytes)  ETV
attr interpolationmode  none
attr source  sinkRcvdPk
attr title  "own packets received by sink, vector(packetBytes)"
vector 526  Net802154MultiGateway.host[37].wrappedHost.trafficgen  sinkRcvdPk:vector(packetBytes)  ETV
attr interpolationmode  none
attr source  sinkRcvdPk
attr title  "own packets received by sink, vector(packetBytes)"
vector 762  Net802154MultiGateway.host[54].wrappedHost.trafficgen  sentPk:vector(packetBytes)  ETV
attr interpolationmode  none
attr source  sentPk
attr title  "packets sent, vector(packetBytes)"
vector 766  Net802154MultiGateway.host[54].wrappedHost.trafficgen  PRR:vector  ETV
attr interpolationmode  none
attr source  count(sinkRcvdPk)/count(sentPk)
attr title  "PRR, vector"
vector 692  Net802154MultiGateway.host[49].wrappedHost.trafficgen  sentPk:vector(packetBytes)  ETV
attr interpolationmode  none
attr source  sentPk
attr title  "packets sent, vector(packetBytes)"
vector 696  Net802154MultiGateway.host[49].wrappedHost.trafficgen  PRR:vector  ETV
attr interpolationmode  none
attr source  count(sinkRcvdPk)/count(sentPk)
attr title  "PRR, vector"
vector 764  Net802154MultiGateway.host[54].wrappedHost.trafficgen  sinkRcvdPk:vector(packetBytes)  ETV
attr interpolationmode  none
attr source  sinkRcvdPk
attr title  "own packets received by sink, vector(packetBytes)"
vector 694  Net802154MultiGateway.host[49].wrappedHost.trafficgen  sinkRcvdPk:vector(packetBytes)  ETV
attr interpolationmode  none
attr source  sinkRcvdPk
attr title  "own packets received by sink, vector(packetBytes)"
vector 468  Net802154MultiGateway.host[33].wrappedHost.trafficgen  sentPk:vector(packetBytes)  ETV
attr interpolationmode  none
attr source  sentPk
attr title  "packets sent, vector(packetBytes)"
vector 472  Net802154MultiGateway.host[33].wrappedHost.trafficgen  PRR:vector  ETV
attr interpolationmode  none
attr source  count(sinkRcvdPk)/count(sentPk)
attr title  "PRR, vector"
vector 470  Net802154MultiGateway.host[33].wrappedHost.trafficgen  sinkRcvdPk:vector(packetBytes)  ETV
attr interpolationmode  none
attr source  sinkRcvdPk
attr title  "own packets received by sink, vector(packetBytes)"
vector 398  Net802154MultiGateway.host[28].wrappedHost.trafficgen  sentPk:vector(packetBytes)  ETV
attr interpolationmode  none
attr source  sentPk
attr title  "packets sent, vector(packetBytes)"
vector 402  Net802154MultiGateway.host[28].wrappedHost.trafficgen  PRR:vector  ETV
attr interpolationmode  none
attr source  count(sinkRcvdPk)/count(sentPk)
attr title  "PRR, vector"
vector 400  Net802154MultiGateway.host[28].wrappedHost.trafficgen  sinkRcvdPk:vector(packetBytes)  ETV
attr interpolationmode  none
attr source  sinkRcvdPk
attr title  "own packets received by sink, vector(packetBytes)"
vector 244  Net802154MultiGateway.host[17].wrappedHost.trafficgen  sentPk:vector(packetBytes)  ETV
attr interpolationmode  none
attr source  sentPk
attr title  "packets sent, vector(packetBytes)"
vector 248  Net802154MultiGateway.host[17].wrappedHost.trafficgen  PRR:vector  ETV
attr interpolationmode  none
attr source  count(sinkRcvdPk)/count(sentPk)
attr title  "PRR, vector"
vector 246  Net802154MultiGateway.host[17].wrappedHost.trafficgen  sinkRcvdPk:vector(packetBytes)  ETV
attr interpolationmode  none
attr source  sinkRcvdPk
attr title  "own packets received by sink, vector(packetBytes)"
vector 20  Net802154MultiGateway.host[1].wrappedHost.trafficgen  sentPk:vector(packetBytes)  ETV
attr interpolationmode  none
attr source  sentPk
attr title  "packets sent, vector(packetBytes)"
vector 24  Net802154MultiGateway.host[1].wrappedHost.trafficgen  PRR:vector  ETV
attr interpolationmode  none
attr source  count(sinkRcvdPk)/count(sentPk)
attr title  "PRR, vector"
vector 22  Net802154MultiGateway.host[1].wrappedHost.trafficgen  sinkRcvdPk:vector(packetBytes)  ETV
attr interpolationmode  none
attr source  sinkRcvdPk
attr title  "own packets received by sink, vector(packetBytes)"
vector 860  Net802154MultiGateway.host[61].wrappedHost.trafficgen  sentPk:vector(packetBytes)  ETV
attr interpolationmode  none
attr source  sentPk
attr title  "packets sent, vector(packetBytes)"
vector 864  Net802154MultiGateway.host[61].wrappedHost.trafficgen  PRR:vector  ETV
attr interpolationmode  none
attr source  count(sinkRcvdPk)/count(sentPk)
attr title  "PRR, vector"
vector 862  Net802154MultiGateway.host[61].wrappedHost.trafficgen  sinkRcvdPk:vector(packetBytes)  ETV
attr interpolationmode  none
attr source  sinkRcvdPk
attr title  "own packets received by sink, vector(packetBytes)"
vector 146  Net802154MultiGateway.host[10].wrappedHost.trafficgen  sentPk:vector(packetBytes)  ETV
attr interpolationmode  none
attr source  sentPk
attr title  "packets sent, vector(packetBytes)"
vector 150  Net802154MultiGateway.host[10].wrappedHost.trafficgen  PRR:vector  ETV
attr interpolationmode  none
attr source  count(sinkRcvdPk)/count(sentPk)
attr title  "PRR, vector"
vector 148  Net802154MultiGateway.host[10].wrappedHost.trafficgen  sinkRcvdPk:vector(packetBytes)  ETV
attr interpolationmode  none
attr source  sinkRcvdPk
attr title  "own packets received by sink, vector(packetBytes)"
vector 846  Net802154MultiGateway.host[60].wrappedHost.trafficgen  sentPk:vector(packetBytes)  ETV
attr interpolationmode  none
attr source  sentPk
attr title  "packets sent, vector(packetBytes)"
vector 850  Net802154MultiGateway.host[60].wrappedHost.trafficgen  PRR:vector  ETV
attr interpolationmode  none
attr source  count(sinkRcvdPk)/count(sentPk)
attr title  "PRR, vector"
vector 848  Net802154MultiGateway.host[60].wrappedHost.trafficgen  sinkRcvdPk:vector(packetBytes)  ETV
attr interpolationmode  none
attr source  sinkRcvdPk
attr title  "own packets received by sink, vector(packetBytes)"
vector 328  Net802154MultiGateway.host[23].wrappedHost.trafficgen  sentPk:vector(packetBytes)  ETV
attr interpolationmode  none
attr source  sentPk
attr title  "packets sent, vector(packetBytes)"
vector 332  Net802154MultiGateway.host[23].wrappedHost.trafficgen  PRR:vector  ETV
attr interpolationmode  none
attr source  count(sinkRcvdPk)/count(sentPk)
attr title  "PRR, vector"
vector 330  Net802154MultiGateway.host[23].wrappedHost.trafficgen  sinkRcvdPk:vector(packetBytes)  ETV
attr interpolationmode  none
attr source  sinkRcvdPk
attr title  "own packets received by sink, vector(packetBytes)"
vector 202  Net802154MultiGateway.host[14].wrappedHost.trafficgen  sentPk:vector(packetBytes)  ETV
attr interpolationmode  none
attr source  sentPk
attr title  "packets sent, vector(packetBytes)"
vector 206  Net802154MultiGateway.host[14].wrappedHost.trafficgen  PRR:vector  ETV
attr interpolationmode  none
attr source  count(sinkRcvdPk)/count(sentPk)
attr title  "PRR, vector"
vector 204  Net802154MultiGateway.host[14].wrappedHost.trafficgen  sinkRcvdPk:vector(packetBytes)  ETV
attr interpolationmode  none
attr source  sinkRcvdPk
attr title  "own packets received by sink, vector(packetBytes)"
vector 650  Net802154MultiGateway.host[46].wrappedHost.trafficgen  sentPk:vector(packetBytes)  ETV
attr interpolationmode  none
attr source  sentPk
attr title  "packets sent, vector(packetBytes)"
vector 654  Net802154MultiGateway.host[46].wrappedHost.trafficgen  PRR:vector  ETV
attr interpolationmode  none
attr source  count(sinkRcvdPk)/count(sentPk)
attr title  "PRR, vector"
vector 652  Net802154MultiGateway.host[46].wrappedHost.trafficgen  sinkRcvdPk:vector(packetBytes)  ETV
attr interpolationmode  none
attr source  sinkRcvdPk
attr title  "own packets received by sink, vector(packetBytes)"
vector 678  Net802154MultiGateway.host[48].wrappedHost.trafficgen  sentPk:vector(packetBytes)  ETV
attr interpolationmode  none
attr source  sentPk
attr title  "packets sent, vector(packetBytes)"
vector 682  Net802154MultiGateway.host[48].wrappedHost.trafficgen  PRR:vector  ETV
attr interpolationmode  none
attr source  count(sinkRcvdPk)/count(sentPk)
attr title  "PRR, vector"
vector 680  Net802154MultiGateway.host[48].wrappedHost.trafficgen  sinkRcvdPk:vector(packetBytes)  ETV
attr interpolationmode  none
attr source  sinkRcvdPk
attr title  "own packets received by sink, vector(packetBytes)"
vector 76  Net802154MultiGateway.host[5].wrappedHost.trafficgen  sentPk:vector(packetBytes)  ETV
attr interpolationmode  none
attr source  sentPk
attr title  "packets sent, vector(packetBytes)"
vector 80  Net802154MultiGateway.host[5].wrappedHost.trafficgen  PRR:vector  ETV
attr interpolationmode  none
attr source  count(sinkRcvdPk)/count(sentPk)
attr title  "PRR, vector"
vector 78  Net802154MultiGateway.host[5].wrappedHost.trafficgen  sinkRcvdPk:vector(packetBytes)  ETV
attr interpolationmode  none
attr source  sinkRcvdPk
attr title  "own packets received by sink, vector(packetBytes)"
vector 62  Net802154MultiGateway.host[4].wrappedHost.trafficgen  sentPk:vector(packetBytes)  ETV
attr interpolationmode  none
attr source  sentPk
attr title  "packets sent, vector(packetBytes)"
vector 66  Net802154MultiGateway.host[4].wrappedHost.trafficgen  PRR:vector  ETV
attr interpolationmode  none
attr source  count(sinkRcvdPk)/count(sentPk)
attr title  "PRR, vector"
vector 454  Net802154MultiGateway.host[32].wrappedHost.trafficgen  sentPk:vector(packetBytes)  ETV
attr interpolationmode  none
attr source  sentPk
attr title  "packets sent, vector(packetBytes)"
vector 458  Net802154MultiGateway.host[32].wrappedHost.trafficgen  PRR:vector  ETV
attr interpolationmode  none
attr source  count(sinkRcvdPk)/count(sentPk)
attr title  "PRR, vector"
vector 64  Net802154MultiGateway.host[4].wrappedHost.trafficgen  sinkRcvdPk:vector(packetBytes)  ETV
attr interpolationmode  none
attr source  sinkRcvdPk
attr title  "own packets received by sink, vector(packetBytes)"
vector 174  Net802154MultiGateway.host[12].wrappedHost.trafficgen  sentPk:vector(packetBytes)  ETV
attr interpolationmode  none
attr source  sentPk
attr title  "packets sent, vector(packetBytes)"
vector 178  Net802154MultiGateway.host[12].wrappedHost.trafficgen  PRR:vector  ETV
attr interpolationmode  none
attr source  count(sinkRcvdPk)/count(sentPk)
attr title  "PRR, vector"
vector 176  Net802154MultiGateway.host[12].wrappedHost.trafficgen  sinkRcvdPk:vector(packetBytes)  ETV
attr interpolationmode  none
attr source  sinkRcvdPk
attr title  "own packets received by sink, vector(packetBytes)"
vector 456  Net802154MultiGateway.host[32].wrappedHost.trafficgen  sinkRcvdPk:vector(packetBytes)  ETV
attr interpolationmode  none
attr source  sinkRcvdPk
attr title  "own packets received by sink, vector(packetBytes)"
vector 832  Net802154MultiGateway.host[59].wrappedHost.trafficgen  sentPk:vector(packetBytes)  ETV
attr interpolationmode  none
attr source  sentPk
attr title  "packets sent, vector(packetBytes)"
vector 836  Net802154MultiGateway.host[59].wrappedHost.trafficgen  PRR:vector  ETV
attr interpolationmode  none
attr source  count(sinkRcvdPk)/count(sentPk)
attr title  "PRR, vector"
vector 720  Net802154MultiGateway.host[51].wrappedHost.trafficgen  sentPk:vector(packetBytes)  ETV
attr interpolationmode  none
attr source  sentPk
attr title  "packets sent, vector(packetBytes)"
vector 724  Net802154MultiGateway.host[51].wrappedHost.trafficgen  PRR:vector  ETV
attr interpolationmode  none
attr source  count(sinkRcvdPk)/count(sentPk)
attr title  "PRR, vector"
vector 258  Net802154MultiGateway.host[18].wrappedHost.trafficgen  sentPk:vector(packetBytes)  ETV
attr interpolationmode  none
attr source  sentPk
attr title  "packets sent, vector(packetBytes)"
vector 262  Net802154MultiGateway.host[18].wrappedHost.trafficgen  PRR:vector  ETV
attr interpolationmode  none
attr source  count(sinkRcvdPk)/count(sentPk)
attr title  "PRR, vector"
vector 834  Net802154MultiGateway.host[59].wrappedHost.trafficgen  sinkRcvdPk:vector(packetBytes)  ETV
attr interpolationmode  none
attr source  sinkRcvdPk
attr title  "own packets received by sink, vector(packetBytes)"
vector 722  Net802154MultiGateway.host[51].wrappedHost.trafficgen  sinkRcvdPk:vector(packetBytes)  ETV
attr interpolationmode  none
attr source  sinkRcvdPk
attr title  "own packets received by sink, vector(packetBytes)"
vector 412  Net802154MultiGateway.host[29].wrappedHost.trafficgen  sentPk:vector(packetBytes)  ETV
attr interpolationmode  none
attr source  sentPk
attr title  "packets sent, vector(packetBytes)"
vector 416  Net802154MultiGateway.host[29].wrappedHost.trafficgen  PRR:vector  ETV
attr interpolationmode  none
attr source  count(sinkRcvdPk)/count(sentPk)
attr title  "PRR, vector"
vector 414  Net802154MultiGateway.host[29].wrappedHost.trafficgen  sinkRcvdPk:vector(packetBytes)  ETV
attr interpolationmode  none
attr source  sinkRcvdPk
attr title  "own packets received by sink, vector(packetBytes)"
vector 188  Net802154MultiGateway.host[13].wrappedHost.trafficgen  sentPk:vector(packetBytes)  ETV
attr interpolationmode  none
attr source  sentPk
attr title  "packets sent, vector(packetBytes)"
vector 192  Net802154MultiGateway.host[13].wrappedHost.trafficgen  PRR:vector  ETV
attr interpolationmode  none
attr source  count(sinkRcvdPk)/count(sentPk)
attr title  "PRR, vector"
vector 190  Net802154MultiGateway.host[13].wrappedHost.trafficgen  sinkRcvdPk:vector(packetBytes)  ETV
attr interpolationmode  none
attr source  sinkRcvdPk
attr title  "own packets received by sink, vector(packetBytes)"
vector 552  Net802154MultiGateway.host[39].wrappedHost.trafficgen  sentPk:vector(packetBytes)  ETV
attr interpolationmode  none
attr source  sentPk
attr title  "packets sent, vector(packetBytes)"
vector 556  Net802154MultiGateway.host[39].wrappedHost.trafficgen  PRR:vector  ETV
attr interpolationmode  none
attr source  count(sinkRcvdPk)/count(sentPk)
attr title  "PRR, vector"
vector 132  Net802154MultiGateway.host[9].wrappedHost.trafficgen  sentPk:vector(packetBytes)  ETV
attr interpolationmode  none
attr source  sentPk
attr title  "packets sent, vector(packetBytes)"
vector 136  Net802154MultiGateway.host[9].wrappedHost.trafficgen  PRR:vector  ETV
attr interpolationmode  none
attr source  count(sinkRcvdPk)/count(sentPk)
attr title  "PRR, vector"
vector 134  Net802154MultiGateway.host[9].wrappedHost.trafficgen  sinkRcvdPk:vector(packetBytes)  ETV
attr interpolationmode  none
attr source  sinkRcvdPk
attr title  "own packets received by sink, vector(packetBytes)"
vector 554  Net802154MultiGateway.host[39].wrappedHost.trafficgen  sinkRcvdPk:vector(packetBytes)  ETV
attr interpolationmode  none
attr source  sinkRcvdPk
attr title  "own packets received by sink, vector(packetBytes)"
vector 370  Net802154MultiGateway.host[26].wrappedHost.trafficgen  sentPk:vector(packetBytes)  ETV
attr interpolationmode  none
attr source  sentPk
attr title  "packets sent, vector(packetBytes)"
vector 374  Net802154MultiGateway.host[26].wrappedHost.trafficgen  PRR:vector  ETV
attr interpolationmode  none
attr source  count(sinkRcvdPk)/count(sentPk)
attr title  "PRR, vector"
vector 372  Net802154MultiGateway.host[26].wrappedHost.trafficgen  sinkRcvdPk:vector(packetBytes)  ETV
attr interpolationmode  none
attr source  sinkRcvdPk
attr title  "own packets received by sink, vector(packetBytes)"
vector 622  Net802154MultiGateway.host[44].wrappedHost.trafficgen  sentPk:vector(packetBytes)  ETV
attr interpolationmode  none
attr source  sentPk
attr title  "packets sent, vector(packetBytes)"
vector 626  Net802154MultiGateway.host[44].wrappedHost.trafficgen  PRR:vector  ETV
attr interpolationmode  none
attr source  count(sinkRcvdPk)/count(sentPk)
attr title  "PRR, vector"
vector 482  Net802154MultiGateway.host[34].wrappedHost.trafficgen  sentPk:vector(packetBytes)  ETV
attr interpolationmode  none
attr source  sentPk
attr title  "packets sent, vector(packetBytes)"
vector 486  Net802154MultiGateway.host[34].wrappedHost.trafficgen  PRR:vector  ETV
attr interpolationmode  none
attr source  count(sinkRcvdPk)/count(sentPk)
attr title  "PRR, vector"
vector 484  Net802154MultiGateway.host[34].wrappedHost.trafficgen  sinkRcvdPk:vector(packetBytes)  ETV
attr interpolationmode  none
attr source  sinkRcvdPk
attr title  "own packets received by sink, vector(packetBytes)"
vector 624  Net802154MultiGateway.host[44].wrappedHost.trafficgen  sinkRcvdPk:vector(packetBytes)  ETV
attr interpolationmode  none
attr source  sinkRcvdPk
attr title  "own packets received by sink, vector(packetBytes)"
vector 426  Net802154MultiGateway.host[30].wrappedHost.trafficgen  sentPk:vector(packetBytes)  ETV
attr interpolationmode  none
attr source  sentPk
attr title  "packets sent, vector(packetBytes)"
vector 430  Net802154MultiGateway.host[30].wrappedHost.trafficgen  PRR:vector  ETV
attr interpolationmode  none
attr source  count(sinkRcvdPk)/count(sentPk)
attr title  "PRR, vector"
vector 428  Net802154MultiGateway.host[30].wrappedHost.trafficgen  sinkRcvdPk:vector(packetBytes)  ETV
attr interpolationmode  none
attr source  sinkRcvdPk
attr title  "own packets received by sink, vector(packetBytes)"
vector 216  Net802154MultiGateway.host[15].wrappedHost.trafficgen  sentPk:vector(packetBytes)  ETV
attr interpolationmode  none
attr source  sentPk
attr title  "packets sent, vector(packetBytes)"
vector 220  Net802154MultiGateway.host[15].wrappedHost.trafficgen  PRR:vector  ETV
attr interpolationmode  none
attr source  count(sinkRcvdPk)/count(sentPk)
attr title  "PRR, vector"
vector 218  Net802154MultiGateway.host[15].wrappedHost.trafficgen  sinkRcvdPk:vector(packetBytes)  ETV
attr interpolationmode  none
attr source  sinkRcvdPk
attr title  "own packets received by sink, vector(packetBytes)"
vector 286  Net802154MultiGateway.host[20].wrappedHost.trafficgen  sentPk:vector(packetBytes)  ETV
attr interpolationmode  none
attr source  sentPk
attr title  "packets sent, vector(packetBytes)"
vector 290  Net802154MultiGateway.host[20].wrappedHost.trafficgen  PRR:vector  ETV
attr interpolationmode  none
attr source  count(sinkRcvdPk)/count(sentPk)
attr title  "PRR, vector"
vector 288  Net802154MultiGateway.host[20].wrappedHost.trafficgen  sinkRcvdPk:vector(packetBytes)  ETV
attr interpolationmode  none
attr source  sinkRcvdPk
attr title  "own packets received by sink, vector(packetBytes)"
vector 272  Net802154MultiGateway.host[19].wrappedHost.trafficgen  sentPk:vector(packetBytes)  ETV
attr interpolationmode  none
attr source  sentPk
attr title  "packets sent, vector(packetBytes)"
vector 276  Net802154MultiGateway.host[19].wrappedHost.trafficgen  PRR:vector  ETV
attr interpolationmode  none
attr source  count(sinkRcvdPk)/count(sentPk)
attr title  "PRR, vector"
vector 274  Net802154MultiGateway.host[19].wrappedHost.trafficgen  sinkRcvdPk:vector(packetBytes)  ETV
attr interpolationmode  none
attr source  sinkRcvdPk
attr title  "own packets received by sink, vector(packetBytes)"
vector 636  Net802154MultiGateway.host[45].wrappedHost.trafficgen  sentPk:vector(packetBytes)  ETV
attr interpolationmode  none
attr source  sentPk
attr title  "packets sent, vector(packetBytes)"
vector 640  Net802154MultiGateway.host[45].wrappedHost.trafficgen  PRR:vector  ETV
attr interpolationmode  none
attr source  count(sinkRcvdPk)/count(sentPk)
attr title  "PRR, vector"
vector 638  Net802154MultiGateway.host[45].wrappedHost.trafficgen  sinkRcvdPk:vector(packetBytes)  ETV
attr interpolationmode  none
attr source  sinkRcvdPk
attr title  "own packets received by sink, vector(packetBytes)"
vector 48  Net802154MultiGateway.host[3].wrappedHost.trafficgen  sentPk:vector(packetBytes)  ETV
attr interpolationmode  none
attr source  sentPk
attr title  "packets sent, vector(packetBytes)"
vector 52  Net802154MultiGateway.host[3].wrappedHost.trafficgen  PRR:vector  ETV
attr interpolationmode  none
attr source  count(sinkRcvdPk)/count(sentPk)
attr title  "PRR, vector"
vector 50  Net802154MultiGateway.host[3].wrappedHost.trafficgen  sinkRcvdPk:vector(packetBytes)  ETV
attr interpolationmode  none
attr source  sinkRcvdPk
attr title  "own packets received by sink, vector(packetBytes)"
vector 664  Net802154MultiGateway.host[47].wrappedHost.trafficgen  sentPk:vector(packetBytes)  ETV
attr interpolationmode  none
attr source  sentPk
attr title  "packets sent, vector(packetBytes)"
vector 668  Net802154MultiGateway.host[47].wrappedHost.trafficgen  PRR:vector  ETV
attr interpolationmode  none
attr source  count(sinkRcvdPk)/count(sentPk)
attr title  "PRR, vector"
vector 666  Net802154MultiGateway.host[47].wrappedHost.trafficgen  sinkRcvdPk:vector(packetBytes)  ETV
attr interpolationmode  none
attr source  sinkRcvdPk
attr title  "own packets received by sink, vector(packetBytes)"
vector 90  Net802154MultiGateway.host[6].wrappedHost.trafficgen  sentPk:vector(packetBytes)  ETV
attr interpolationmode  none
attr source  sentPk
attr title  "packets sent, vector(packetBytes)"
vector 94  Net802154MultiGateway.host[6].wrappedHost.trafficgen  PRR:vector  ETV
attr interpolationmode  none
attr source  count(sinkRcvdPk)/count(sentPk)
attr title  "PRR, vector"
vector 92  Net802154MultiGateway.host[6].wrappedHost.trafficgen  sinkRcvdPk:vector(packetBytes)  ETV
attr interpolationmode  none
attr source  sinkRcvdPk
attr title  "own packets received by sink, vector(packetBytes)"
vector 706  Net802154MultiGateway.host[50].wrappedHost.trafficgen  sentPk:vector(packetBytes)  ETV
attr interpolationmode  none
attr source  sentPk
attr title  "packets sent, vector(packetBytes)"
vector 710  Net802154MultiGateway.host[50].wrappedHost.trafficgen  PRR:vector  ETV
attr interpolationmode  none
attr source  count(sinkRcvdPk)/count(sentPk)
attr title  "PRR, vector"
vector 708  Net802154MultiGateway.host[50].wrappedHost.trafficgen  sinkRcvdPk:vector(packetBytes)  ETV
attr interpolationmode  none
attr source  sinkRcvdPk
attr title  "own packets received by sink, vector(packetBytes)"
vector 300  Net802154MultiGateway.host[21].wrappedHost.trafficgen  sentPk:vector(packetBytes)  ETV
attr interpolationmode  none
attr source  sentPk
attr title  "packets sent, vector(packetBytes)"
vector 304  Net802154MultiGateway.host[21].wrappedHost.trafficgen  PRR:vector  ETV
attr interpolationmode  none
attr source  count(sinkRcvdPk)/count(sentPk)
attr title  "PRR, vector"
vector 302  Net802154MultiGateway.host[21].wrappedHost.trafficgen  sinkRcvdPk:vector(packetBytes)  ETV
attr interpolationmode  none
attr source  sinkRcvdPk
attr title  "own packets received by sink, vector(packetBytes)"
vector 314  Net802154MultiGateway.host[22].wrappedHost.trafficgen  sentPk:vector(packetBytes)  ETV
attr interpolationmode  none
attr source  sentPk
attr title  "packets sent, vector(packetBytes)"
vector 318  Net802154MultiGateway.host[22].wrappedHost.trafficgen  PRR:vector  ETV
attr interpolationmode  none
attr source  count(sinkRcvdPk)/count(sentPk)
attr title  "PRR, vector"
vector 316  Net802154MultiGateway.host[22].wrappedHost.trafficgen  sinkRcvdPk:vector(packetBytes)  ETV
attr interpolationmode  none
attr source  sinkRcvdPk
attr title  "own packets received by sink, vector(packetBytes)"
vector 34  Net802154MultiGateway.host[2].wrappedHost.trafficgen  sentPk:vector(packetBytes)  ETV
attr interpolationmode  none
attr source  sentPk
attr title  "packets sent, vector(packetBytes)"
vector 38  Net802154MultiGateway.host[2].wrappedHost.trafficgen  PRR:vector  ETV
attr interpolationmode  none
attr source  count(sinkRcvdPk)/count(sentPk)
attr title  "PRR, vector"
vector 36  Net802154MultiGateway.host[2].wrappedHost.trafficgen  sinkRcvdPk:vector(packetBytes)  ETV
attr interpolationmode  none
attr source  sinkRcvdPk
attr title  "own packets received by sink, vector(packetBytes)"
vector 118  Net802154MultiGateway.host[8].wrappedHost.trafficgen  sentPk:vector(packetBytes)  ETV
attr interpolationmode  none
attr source  sentPk
attr title  "packets sent, vector(packetBytes)"
vector 122  Net802154MultiGateway.host[8].wrappedHost.trafficgen  PRR:vector  ETV
attr interpolationmode  none
attr source  count(sinkRcvdPk)/count(sentPk)
attr title  "PRR, vector"
vector 120  Net802154MultiGateway.host[8].wrappedHost.trafficgen  sinkRcvdPk:vector(packetBytes)  ETV
attr interpolationmode  none
attr source  sinkRcvdPk
attr title  "own packets received by sink, vector(packetBytes)"
vector 538  Net802154MultiGateway.host[38].wrappedHost.trafficgen  sentPk:vector(packetBytes)  ETV
attr interpolationmode  none
attr source  sentPk
attr title  "packets sent, vector(packetBytes)"
vector 542  Net802154MultiGateway.host[38].wrappedHost.trafficgen  PRR:vector  ETV
attr interpolationmode  none
attr source  count(sinkRcvdPk)/count(sentPk)
attr title  "PRR, vector"
vector 540  Net802154MultiGateway.host[38].wrappedHost.trafficgen  sinkRcvdPk:vector(packetBytes)  ETV
attr interpolationmode  none
attr source  sinkRcvdPk
attr title  "own packets received by sink, vector(packetBytes)"
vector 594  Net802154MultiGateway.host[42].wrappedHost.trafficgen  sentPk:vector(packetBytes)  ETV
attr interpolationmode  none
attr source  sentPk
attr title  "packets sent, vector(packetBytes)"
vector 598  Net802154MultiGateway.host[42].wrappedHost.trafficgen  PRR:vector  ETV
attr interpolationmode  none
attr source  count(sinkRcvdPk)/count(sentPk)
attr title  "PRR, vector"
vector 596  Net802154MultiGateway.host[42].wrappedHost.trafficgen  sinkRcvdPk:vector(packetBytes)  ETV
attr interpolationmode  none
attr source  sinkRcvdPk
attr title  "own packets received by sink, vector(packetBytes)"
vector 566  Net802154MultiGateway.host[40].wrappedHost.trafficgen  sentPk:vector(packetBytes)  ETV
attr interpolationmode  none
attr source  sentPk
attr title  "packets sent, vector(packetBytes)"
vector 570  Net802154MultiGateway.host[40].wrappedHost.trafficgen  PRR:vector  ETV
attr interpolationmode  none
attr source  count(sinkRcvdPk)/count(sentPk)
attr title  "PRR, vector"
vector 568  Net802154MultiGateway.host[40].wrappedHost.trafficgen  sinkRcvdPk:vector(packetBytes)  ETV
attr interpolationmode  none
attr source  sinkRcvdPk
attr title  "own packets received by sink, vector(packetBytes)"
vector 440  Net802154MultiGateway.host[31].wrappedHost.trafficgen  sentPk:vector(packetBytes)  ETV
attr interpolationmode  none
attr source  sentPk
attr title  "packets sent, vector(packetBytes)"
vector 444  Net802154MultiGateway.host[31].wrappedHost.trafficgen  PRR:vector  ETV
attr interpolationmode  none
attr source  count(sinkRcvdPk)/count(sentPk)
attr title  "PRR, vector"
vector 442  Net802154MultiGateway.host[31].wrappedHost.trafficgen  sinkRcvdPk:vector(packetBytes)  ETV
attr interpolationmode  none
attr source  sinkRcvdPk
attr title  "own packets received by sink, vector(packetBytes)"
vector 260  Net802154MultiGateway.host[18].wrappedHost.trafficgen  sinkRcvdPk:vector(packetBytes)  ETV
attr interpolationmode  none
attr source  sinkRcvdPk
attr title  "own packets received by sink, vector(packetBytes)"
vector 608  Net802154MultiGateway.host[43].wrappedHost.trafficgen  sentPk:vector(packetBytes)  ETV
attr interpolationmode  none
attr source  sentPk
attr title  "packets sent, vector(packetBytes)"
vector 612  Net802154MultiGateway.host[43].wrappedHost.trafficgen  PRR:vector  ETV
attr interpolationmode  none
attr source  count(sinkRcvdPk)/count(sentPk)
attr title  "PRR, vector"
vector 610  Net802154MultiGateway.host[43].wrappedHost.trafficgen  sinkRcvdPk:vector(packetBytes)  ETV
attr interpolationmode  none
attr source  sinkRcvdPk
attr title  "own packets received by sink, vector(packetBytes)"
vector 384  Net802154MultiGateway.host[27].wrappedHost.trafficgen  sentPk:vector(packetBytes)  ETV
attr interpolationmode  none
attr source  sentPk
attr title  "packets sent, vector(packetBytes)"
vector 388  Net802154MultiGateway.host[27].wrappedHost.trafficgen  PRR:vector  ETV
attr interpolationmode  none
attr source  count(sinkRcvdPk)/count(sentPk)
attr title  "PRR, vector"
vector 386  Net802154MultiGateway.host[27].wrappedHost.trafficgen  sinkRcvdPk:vector(packetBytes)  ETV
attr interpolationmode  none
attr source  sinkRcvdPk
attr title  "own packets received by sink, vector(packetBytes)"
vector 748  Net802154MultiGateway.host[53].wrappedHost.trafficgen  sentPk:vector(packetBytes)  ETV
attr interpolationmode  none
attr source  sentPk
attr title  "packets sent, vector(packetBytes)"
vector 752  Net802154MultiGateway.host[53].wrappedHost.trafficgen  PRR:vector  ETV
attr interpolationmode  none
attr source  count(sinkRcvdPk)/count(sentPk)
attr title  "PRR, vector"
vector 750  Net802154MultiGateway.host[53].wrappedHost.trafficgen  sinkRcvdPk:vector(packetBytes)  ETV
attr interpolationmode  none
attr source  sinkRcvdPk
attr title  "own packets received by sink, vector(packetBytes)"
vector 734  Net802154MultiGateway.host[52].wrappedHost.trafficgen  sentPk:vector(packetBytes)  ETV
attr interpolationmode  none
attr source  sentPk
attr title  "packets sent, vector(packetBytes)"
vector 738  Net802154MultiGateway.host[52].wrappedHost.trafficgen  PRR:vector  ETV
attr interpolationmode  none
attr source  count(sinkRcvdPk)/count(sentPk)
attr title  "PRR, vector"
vector 736  Net802154MultiGateway.host[52].wrappedHost.trafficgen  sinkRcvdPk:vector(packetBytes)  ETV
attr interpolationmode  none
attr source  sinkRcvdPk
attr title  "own packets received by sink, vector(packetBytes)"
vector 104  Net802154MultiGateway.host[7].wrappedHost.trafficgen  sentPk:vector(packetBytes)  ETV
attr interpolationmode  none
attr source  sentPk
attr title  "packets sent, vector(packetBytes)"
vector 108  Net802154MultiGateway.host[7].wrappedHost.trafficgen  PRR:vector  ETV
attr interpolationmode  none
attr source  count(sinkRcvdPk)/count(sentPk)
attr title  "PRR, vector"
vector 106  Net802154MultiGateway.host[7].wrappedHost.trafficgen  sinkRcvdPk:vector(packetBytes)  ETV
attr interpolationmode  none
attr source  sinkRcvdPk
attr title  "own packets received by sink, vector(packetBytes)"
vector 160  Net802154MultiGateway.host[11].wrappedHost.trafficgen  sentPk:vector(packetBytes)  ETV
attr interpolationmode  none
attr source  sentPk
attr title  "packets sent, vector(packetBytes)"
vector 164  Net802154MultiGateway.host[11].wrappedHost.trafficgen  PRR:vector  ETV
attr interpolationmode  none
attr source  count(sinkRcvdPk)/count(sentPk)
attr title  "PRR, vector"
vector 162  Net802154MultiGateway.host[11].wrappedHost.trafficgen  sinkRcvdPk:vector(packetBytes)  ETV
attr interpolationmode  none
attr source  sinkRcvdPk
attr title  "own packets received by sink, vector(packetBytes)"
5	959999	161.013938551817	76
5	960341	161.042583345397	76
5	960753	161.102953758768	76
5	960914	161.109892753871	76
5	961120	161.123371691839	76
5	961319	161.161893942411	76
5	961560	161.217216478777	76
5	961877	161.231984768057	76
5	961972	161.239965223314	76
5	962188	161.263983345281	76
5	962372	161.271100754343	76
5	962641	161.325182150418	76
5	962834	161.337161782365	76
5	963134	161.381062512853	76
5	963596	161.515954116236	76
5	963728	161.54462395944	76
5	963871	161.64492800129	76
5	964068	161.691388211645	76
5	964397	161.715840060174	76
5	964597	161.725440867509	76
5	964928	161.749429557575	76
5	965117	161.764090026259	76
5	965281	161.863904401612	76
5	965467	161.902675499177	76
5	965732	161.922732351507	76
5	965857	161.940943713168	76
5	965965	161.961735886031	76
5	966200	161.997945519359	76
5	966498	162.013659073346	76
5	966626	162.018883624316	76
5	967078	162.118748383372	76
5	967261	162.139925713955	76
5	967373	162.203025029026	76
5	967636	162.294553317341	76
5	967732	162.301887010955	76
5	967945	162.318711426919	76
5	968062	162.342367691983	76
5	968368	162.35500882631	76
5	968476	162.364416351126	76
5	968929	162.387222670646	76
5	969187	162.395745668573	76
5	969355	162.403268667075	76
5	969557	162.421214092983	76
5	969833	162.441532286354	76
5	969957	162.44837686142	76
5	970069	162.459939113822	76
5	970252	162.491053343957	76
5	970430	162.520877812284	76
5	970615	162.531760461418	76
5	970718	162.536533269104	76
5	970927	162.552954258881	76
5	971088	162.56235788016	76
5	971360	162.587869985561	76
5	971562	162.637924298164	76
5	971922	162.659076089556	76
5	972028	162.66394129332	76
5	972141	162.714676497399	76
5	972472	162.781897577238	76
5	972587	162.815803162513	76
5	972863	162.832170546909	76
5	973085	162.846544233778	76
5	973287	162.86666037786	76
5	973491	162.937690694802	76
5	973589	162.957588282618	76
5	973716	162.96268180788	76
5	973832	162.995431407834	76
5	973947	163.035213221699	76
5	974128	163.061346789332	76
5	974330	163.122069282863	76
5	974609	163.13857026337	76
5	974806	163.148412390536	76
5	975010	163.203858242103	76
5	975209	163.277697664924	76
5	975527	163.363754997951	76
5	975750	163.375626108092	76
5	976002	163.386834423376	76
5	976114	163.398354734004	76
5	976219	163.404819401132	76
5	976505	163.426868496415	76
5	976620	163.444794531825	76
5	976799	163.457473675262	76
5	976898	163.471945543879	76
5	977092	163.48312449035	76
5	977291	163.511694338495	76
5	977703	163.638072627937	76
5	977942	163.726641112303	76
5	978262	163.775835774917	76
5	978596	163.839546668903	76
5	978708	163.88023572831	76
5	978959	163.900230293427	76
5	979189	163.948638484607	76
5	979550	164.086332567091	76
5	979951	164.269646359253	76
5	980154	164.313558581446	76
5	980450	164.337318461104	76
5	980727	164.351125052803	76
5	980858	164.356133348405	76
5	980980	164.363071370423	76
5	981220	164.464458679217	76
5	981345	164.495820540995	76
5	981511	164.537135701968	76
5	981697	164.55090543214	76
5	981814	164.567162457876	76
5	981919	164.572495243578	76
5	982134	164.595100166866	76
5	982408	164.61039646514	76
5	982584	164.616957189505	76
5	982796	164.630688196541	76
5	982906	164.647440366907	76
5	983105	164.666951457483	76
5	983362	164.719374720971	76
5	983488	164.779152694261	76
5	983738	164.846754967473	76
5	984068	164.886720894963	76
5	984194	164.895020642032	76
5	984537	164.911557741744	76
5	984821	164.948624292627	76
5	984928	164.956824616862	76
5	985052	164.962787374436	76
5	985260	164.995800382175	76
5	985452	165.016330812419	76
5	985557	165.020931112718	76
5	985771	165.03294768308	76
5	985957	165.043935575657	76
5	986158	165.06536759842	76
5	986293	165.069788588044	76
5	986403	165.076610593777	76
5	986716	165.139223024468	76
5	986880	165.145835215035	76
5	987086	165.181655097639	76
5	987276	165.215450932627	76
5	987466	165.23710847457	76
5	987802	165.278790359182	76
5	987928	165.285405320803	76
5	988072	165.295273085519	76
5	988267	165.335986199662	76
5	988450	165.350884328718	76
5	988862	165.404987223019	76
5	989023	165.409742940593	76
5	989259	165.425748576241	76
5	989476	165.521629860658	76
5	989726	165.531526136619	76
5	989920	165.545765791636	76
5	990105	165.558968663613	76
5	990240	165.580243959744	76
5	990443	165.666044662778	76
5	990628	165.705543341794	76
5	990896	165.738131825449	76
5	991005	165.744624746077	76
5	991192	165.78277726988	76
5	991476	165.813602358451	76
5	991747	165.855992264315	76
5	991936	165.876369372704	76
5	992123	165.956283630735	76
5	992260	166.049856828681	76
5	992385	166.058260888111	76
5	992481	166.068194068899	76
5	992707	166.102946976157	76
5	992923	166.113430293236	76
5	993095	166.120608373613	76
5	993354	166.151643462457	76
5	993570	166.195539494561	76
5	993780	166.209901052796	76
5	993961	166.219817388181	76
5	994167	166.2318010875	76
5	994277	166.236986421756	76
5	994497	166.249130507588	76
5	994710	166.257168294231	76
5	994858	166.26230171701	76
5	995065	166.295388575205	76
5	995182	166.51038689853	76
5	995368	166.560984032122	76
5	995556	166.608081003268	76
5	995849	166.640862204497	76
5	996079	166.653518744111	76
5	996221	166.662408389768	76
5	996431	166.686943097244	76
5	996627	166.767456337833	76
5	996743	166.798017446865	76
5	996926	166.830223888176	76
5	997049	166.835021513421	76
5	997148	166.875230352544	76
5	997476	166.977152522621	76
5	997721	166.985106465943	76
5	997832	166.990409438465	76
5	998032	167.008515774427	76
5	998244	167.023284168503	76
5	998429	167.062106371414	76
5	998542	167.181629549134	76
5	998798	167.192293557304	76
5	998904	167.197253774197	76
5	999108	167.239892634783	76
5	999317	167.306625320261	76
5	999503	167.326248127107	76
5	999707	167.337512757029	76
5	999993	167.350119393116	76
5	1000246	167.357536354267	76
5	1000400	167.366850438705	76
5	1000665	167.412271500152	76
5	1000941	167.432784775308	76
5	1001143	167.509944901641	76
5	1001429	167.561399706313	76
5	1001692	167.593064278153	76
5	1001889	167.608955091786	76
5	1002003	167.646892204605	76
5	1002219	167.661197901157	76
5	1002347	167.714318084353	76
5	1002655	167.729393519679	76
5	1002763	167.736836290276	76
5	1002895	167.813395450245	76
5	1003081	167.845029638664	76
5	1003184	167.84989497292	76
5	1003368	167.869744688437	76
5	1003494	167.893473763469	76
5	1003590	168.000281031976	76
5	1003700	168.059479874566	76
5	1003810	168.078184090959	76
5	1003923	168.119259253946	76
5	1004200	168.16989801019	76
5	1004402	168.196839749111	76
5	1004678	168.233322980898	76
5	1005040	168.253620269765	76
5	1005180	168.260542422764	76
5	1005376	168.320209137658	76
5	1005491	168.361192662375	76
5	1005746	168.404411613415	76
5	1005880	168.445462742558	76
5	1006153	168.536367536987	76
5	1006376	168.550828649455	76
5	1006575	168.605549946476	76
5	1006774	168.619170957208	76
5	1006978	168.657566266334	76
5	1007099	168.662966877162	76
5	1007325	168.674672736135	76
5	1007600	168.833379962686	76
5	1007709	168.840933215823	76
5	1007995	168.853081582465	76
5	1008280	168.874333517445	76
5	1008545	168.897918913259	76
5	1008655	168.907202432804	76
5	1008857	168.930183194107	76
5	1009143	168.993441700252	76
5	1009257	169.001227248935	76
5	1009367	169.007360994631	76
5	1009465	169.024986840843	76
5	1009658	169.089539097163	76
5	1009795	169.099052913761	76
5	1010015	169.120686150131	76
5	1010274	169.174169704169	76
5	1010476	169.239327847196	76
5	1010929	169.294674815022	76
5	1011170	169.301304042968	76
5	1011326	169.307964735243	76
5	1011540	169.314702428051	76
5	1011649	169.320183356468	76
5	1011774	169.327201595068	76
5	1011960	169.372407713308	76
5	1012072	169.412394176846	76
5	1012279	169.449196969409	76
5	1012396	169.525422329098	76
5	1012706	169.539153687915	76
5	1012853	169.545601774598	76
5	1013119	169.559207031177	76
5	1013260	169.567666890992	76
5	1013393	169.606312697363	76
5	1013683	169.6254939447	76
5	1013854	169.634766889194	76
5	1014119	169.65394430045	76
5	1014223	169.660224887062	76
5	1014423	169.684291974	76
5	1014703	169.707362138737	76
5	1014899	169.725283532037	76
5	1015009	169.7339287038	76
5	1015222	169.77739770294	76
5	1015410	169.811545613676	76
5	1015609	169.83247663782	76
5	1015829	169.909314496275	76
5	1015955	169.916963407546	76
5	1016141	169.94492313013	76
5	1016267	169.97429168693	76
5	1016522	170.016965154857	76
5	1016629	170.025985667308	76
5	1016830	170.04299652909	76
5	1017025	170.060234245685	76
5	1017121	170.083332910397	76
5	1017594	170.193724868918	76
5	1017708	170.240684404244	76
5	1017969	170.274690823911	76
5	1018127	170.307217624962	76
5	1018488	170.338741932713	76
5	1018694	170.364932539139	76
5	1018912	170.376669176135	76
5	1019085	170.521254465317	76
5	1019201	170.548064163187	76
5	1019384	170.562637524444	76
5	1019606	170.577849152529	76
5	1019931	170.59205061402	76
5	1020206	170.621067048934	76
5	1020338	170.636531496698	76
5	1020524	170.677111606031	76
5	1020798	170.772216588801	76
5	1021010	170.790099750956	76
5	1021198	170.813013930462	76
5	1021485	170.832346507314	76
5	1021648	170.839259868413	76
5	1021774	170.899044187366	76
5	1022035	170.95987373175	76
5	1022239	170.984927853094	76
5	1022351	171.005968645531	76
5	1022700	171.110997154084	76
5	1022874	171.11978308966	76
5	1023234	171.196236354444	76
5	1023438	171.236037625679	76
5	1023625	171.268320197845	76
5	1023743	171.322875263436	76
5	1023980	171.341522084545	76
5	1024174	171.363228510379	76
5	1024438	171.402048231855	76
5	1024573	171.462538828627	76
5	1024764	171.477075080451	76
5	1024892	171.48949871824	76
5	1025101	171.530654305639	76
5	1025237	171.536980141956	76
5	1025423	171.570029562239	76
5	1025698	171.592861529429	76
5	1025969	171.604206835679	76
5	1026140	171.608829031332	76
5	1026343	171.621789601581	76
5	1026689	171.685942872262	76
5	1026960	171.695153136642	76
5	1027052	171.700670365494	76
5	1027324	171.773141400798	76
5	1027604	171.873653340494	76
5	1027720	171.878563015484	76
5	1028003	171.898209096924	76
5	1028256	171.916808770983	76
5	1028368	171.968946223794	76
5	1028752	172.009185477316	76
5	1029035	172.020937648006	76
5	1029249	172.039243941946	76
5	1029420	172.047471820003	76
5	1029543	172.053080961131	76
5	1029679	172.093062594043	76
5	1029803	172.100844521954	76
5	1030144	172.272948978631	76
5	1030240	172.294311317983	76
5	1030599	172.319025339997	76
5	1030737	172.326392138168	76
5	1030920	172.345322771556	76
5	1031121	172.357364330691	76
5	1031383	172.421885258708	76
5	1031595	172.445169126886	76
5	1031752	172.481784543124	76
5	1031878	172.48777706506	76
5	1032082	172.500836022013	76
5	1032213	172.544170574519	76
5	1032397	172.585356509073	76
5	1032723	172.607800070218	76
5	1032859	172.651328866658	76
5	1033019	172.660650997455	76
5	1033131	172.675881984345	76
5	1033487	172.746550802998	76
5	1033592	172.752659303043	76
5	1033833	172.881769652362	76
5	1034115	172.955473292291	76
5	1034380	172.977206013063	76
5	1034490	172.981820089585	76
5	1034769	173.035971409398	76
5	1034896	173.064693694351	76
5	1035155	173.094886545417	76
5	1035356	173.137049738115	76
5	1035568	173.171259101157	76
5	1035918	173.212253468536	76
5	1036147	173.221769363158	76
5	1036363	173.227087667218	76
5	1036475	173.242085429475	76
5	1036629	173.26487206121	76
5	1036813	173.285110208682	76
5	1036945	173.291812047775	76
5	1037164	173.348053397798	76
5	1037450	173.368230004487	76
5	1037781	173.394299634902	76
5	1037906	173.402006679143	76
5	1038163	173.473409220382	76
5	1038360	173.488358547695	76
5	1038611	173.51700037032	76
5	1038825	173.55156649621	76
5	1039202	173.731302524591	76
5	1039470	173.816795816361	76
5	1039590	173.822135033009	76
5	1039847	173.837947676001	76
5	1040267	173.872873021289	76
5	1040414	173.880983603374	76
5	1040597	173.896864547574	76
5	1040729	173.92238812213	76
5	1040925	173.962093444157	76
5	1041113	173.995885405413	76
5	1041387	174.017788104974	76
5	1041581	174.023193884842	76
5	1041784	174.039902874739	76
5	1042011	174.050727776851	76
5	1042144	174.055165242795	76
5	1042513	174.065049594047	76
5	1042666	174.071801516798	76
5	1042813	174.102107001792	76
5	1043187	174.120465842421	76
5	1043295	174.12965078246	76
5	1043421	174.260413035506	76
5	1043535	174.277234666049	76
5	1043790	174.290274929119	76
5	1044108	174.364639703492	76
5	1044402	174.410030766816	76
5	1044552	174.416417055561	76
5	1044662	174.42179566126	76
5	1044942	174.47052005274	76
5	1045188	174.484603602857	76
5	1045298	174.510130324518	76
5	1045394	174.558331836438	76
5	1045504	174.597069597367	76
5	1045776	174.646684450476	76
5	1045888	174.664561083047	76
5	1046095	174.683319760824	76
5	1046202	174.692326653984	76
5	1046390	174.709638968429	76
5	1046497	174.715798281091	76
5	1046710	174.795164343657	76
5	1046821	174.800111637087	76
5	1047029	174.841376067971	76
5	1047267	174.856037216792	76
5	1047525	174.870695360639	76
5	1047898	174.885770182231	76
5	1048080	174.890634849359	76
5	1048321	174.899841263469	76
5	1048454	174.904329433371	76
5	1048677	174.912928402408	76
5	1048852	174.919694233285	76
5	1049036	174.926219858251	76
5	1049286	174.965398411728	76
5	1049383	174.984744983401	76
5	1049545	175.030920749548	76
5	1049769	175.090840267614	76
5	1049897	175.099220208323	76
5	1049995	175.17763025866	76
5	1050266	175.209124192791	76
5	1050543	175.231159051255	76
5	1050698	175.237046109903	76
5	1050790	175.241699373598	76
5	1051084	175.273107211533	76
5	1051313	175.288336370713	76
5	1051509	175.306599074289	76
5	1051618	175.360388189637	76
5	1051802	175.374652990882	76
5	1052020	175.387071748767	76
5	1052203	175.398977908725	76
5	1052329	175.409925143481	76
5	1052608	175.4526883976	76
5	1052825	175.461057286606	76
5	1052955	175.46683412936	76
5	1053144	175.512075414386	76
5	1053443	175.536116583204	76
5	1053542	175.584472190785	76
5	1053736	175.595629363932	76
5	1053950	175.640857346833	76
5	1054043	175.646363747655	76
5	1054175	175.667515984106	76
5	1054361	175.690346443612	76
5	1054563	175.732790598984	76
5	1054689	175.805649613263	76
5	1054820	175.878846503059	76
5	1054954	175.888331060015	76
5	1055142	175.961928796267	76
5	1055354	176.009624489203	76
5	1055470	176.095742653504	76
5	1055763	176.158949171151	76
5	1055936	176.167078484073	76
5	1056121	176.222346763877	76
5	1056233	176.241493089918	76
5	1056516	176.278080810833	76
5	1056703	176.31232569287	76
5	1056829	176.33457858092	76
5	1057144	176.38569075141	76
5	1057233	176.390446911957	76
5	1057435	176.426072949308	76
5	1057637	176.458916790986	76
5	1057839	176.490912423645	76
5	1058062	176.50606393734	76
5	1058248	176.565533572946	76
5	1058382	176.595171671162	76
5	1058563	176.661955373045	76
5	1058778	176.707552367588	76
5	1059044	176.815566285396	76
5	1059251	176.827739466782	76
5	1059510	176.866182635441	76
5	1059710	176.900909374531	76
5	1059912	176.995395754346	76
5	1060131	177.027408505008	76
5	1060229	177.085320871335	76
5	1060339	177.133326024011	76
5	1060462	177.239493699211	76
5	1060646	177.312304658117	76
5	1060777	177.322367387234	76
5	1060959	177.337688267457	76
5	1061147	177.387226346179	76
5	1061410	177.463077671133	76
5	1061538	177.477986435636	76
5	1061724	177.534900987861	76
5	1061834	177.541963557644	76
5	1062110	177.602323806167	76
5	1062241	177.613001807501	76
5	1062422	177.629292568538	76
5	1062553	177.756712760044	76
5	1062760	177.788809275982	76
5	1062907	177.797022920332	76
5	1063170	177.804436841402	76
5	1063441	177.810562474187	76
5	1063650	177.815707221416	76
5	1063925	177.825816935025	76
5	1064078	177.834456704081	76
5	1064266	177.920392163152	76
5	1064397	177.965325359543	76
5	1064505	177.991079927452	76
5	1064615	178.004152227493	76
5	1064796	178.034668773166	76
5	1065055	178.059587504149	76
5	1065182	178.071973958423	76
5	1065298	178.092859251375	76
5	1065413	178.214944485208	76
5	1065606	178.23472084386	76
5	1065804	178.244854335332	76
5	1065917	178.289481708335	76
5	1066040	178.315356076564	76
5	1066221	178.354423146853	76
5	1066420	178.391022553576	76
5	1066622	178.414425500996	76
5	1066821	178.431813021907	76
5	1067020	178.485697024714	76
5	1067238	178.513464750334	76
5	1067353	178.518809940262	76
5	1067539	178.641383639857	76
5	1067764	178.658445515483	76
5	1067991	178.669791318897	76
5	1068190	178.683545681164	76
5	1068476	178.701319716641	76
5	1068869	178.73796129064	76
5	1068979	178.743585329346	76
5	1069177	178.75376803261	76
5	1069287	178.761323946522	76
5	1069486	178.784327909989	76
5	1069764	178.832943041597	76
5	1069962	178.872873323048	76
5	1070219	178.952566147937	76
5	1070341	178.989310581106	76
5	1070462	179.00036564649	76
5	1070578	179.032431558609	76
5	1070776	179.047985059548	76
5	1071037	179.06227973369	76
5	1071246	179.10915448332	76
5	1071537	179.180996596948	76
5	1071680	179.188557093157	76
5	1071830	179.200094452145	76
5	1071963	179.20774886671	76
5	1072078	179.312508248	76
5	1072272	179.354698848596	76
5	1072460	179.410154267502	76
5	1072648	179.503865982751	76
5	1072774	179.527257738681	76
5	1072889	179.541285998878	76
5	1072986	179.595665732693	76
5	1073118	179.635404763996	76
5	1073327	179.651185225107	76
5	1073512	179.698858873246	76
5	1073638	179.737733001745	76
5	1073819	179.7677795061	76
5	1073934	179.792471428252	76
5	1074118	179.836009971197	76
5	1074317	179.859610442926	76
5	1074519	179.898744730707	76
5	1074716	179.911916508779	76
5	1074991	179.961794200375	76
5	1075185	179.969060808216	76
5	1075434	180.010247997175	76
5	1075647	180.024714997969	76
5	1075899	180.088590583671	76
5	1076030	180.109136324301	76
5	1076214	180.149661874757	76
5	1076424	180.162259235668	76
5	1076620	180.167987996291	76
5	1076831	180.176518785914	76
5	1077054	180.187737830544	76
5	1077253	180.249054284317	76
5	1077542	180.315378872209	76
5	1077952	180.346917907476	76
5	1078107	180.357089323591	76
5	1078309	180.393375181292	76
5	1078526	180.41326304848	76
5	1078726	180.425253740579	76
5	1079081	180.439318434954	76
5	1079205	180.447437218927	76
5	1079482	180.482426188901	76
5	1079708	180.4940743835	76
5	1079890	180.50187858083	76
5	1080077	180.547247685285	76
5	1080273	180.557814747923	76
5	1080484	180.585253661241	76
5	1080666	180.594617694851	76
5	1080853	180.618364558084	76
5	1081267	180.728608374516	76
5	1081571	180.793793271827	76
5	1081682	180.802052366655	76
5	1081854	180.818548550534	76
5	1082143	180.867369284151	76
5	1082274	180.896291180025	76
5	1082401	180.903016233525	76
5	1082573	180.908178258429	76
5	1082762	180.920783104112	76
5	1082895	180.960894254678	76
5	1083096	180.976255493722	76
5	1083191	180.988208946337	76
5	1083562	181.014713173573	76
5	1083675	181.026070611192	76
5	1083891	181.045656662576	76
5	1084088	181.050632422014	76
5	1084246	181.058032149157	76
5	1084417	181.0645405755	76
5	1084757	181.080379020502	76
5	1084909	181.090110483053	76
5	1085168	181.136480679473	76
5	1085369	181.152698275601	76
5	1085869	181.246175322298	76
5	1086010	181.255966219301	76
5	1086108	181.303542553208	76
5	1086382	181.361943000201	76
5	1086478	181.397796073292	76
5	1086602	181.415865305466	76
5	1086852	181.480815062152	76
5	1087130	181.540050814118	76
5	1087333	181.554961129416	76
5	1087546	181.589260102401	76
5	1087647	181.599993904653	76
5	1087879	181.60797109908	76
5	1088067	181.617145670141	76
5	1088307	181.63328224193	76
5	1088509	181.652610997248	76
5	1088840	181.676339809098	76
5	1089025	181.747263498919	76
5	1089368	181.774832445116	76
5	1089561	181.781783647989	76
5	1089764	181.788211536322	76
5	1089910	181.793692223653	76
5	1090078	181.801036763568	76
5	1090248	181.8081462758	76
5	1090432	181.830587254574	76
5	1090541	181.84918616201	76
5	1090777	181.871208673618	76
5	1091076	181.893652004236	76
5	1091174	181.92812533982	76
5	1091371	181.961816765739	76
5	1091756	182.040611505834	76
5	1091987	182.051938548811	76
5	1092279	182.102466305712	76
5	1092482	182.12988175226	76
5	1092794	182.18593122888	76
5	1093119	182.223243356609	76
5	1093310	182.27686740057	76
5	1093493	182.293189658934	76
5	1093594	182.306379263575	76
5	1093699	182.310968197572	76
5	1093825	182.324420515249	76
5	1094112	182.345884109458	76
5	1094206	182.354397713542	76
5	1094337	182.398022267257	76
5	1094592	182.435072040728	76
5	1094937	182.462241702662	76
5	1095215	182.480681185822	76
5	1095412	182.493469215126	76
5	1095603	182.553768646269	76
5	1095952	182.671028798447	76
5	1096065	182.704412589164	76
5	1096176	182.713603005917	76
5	1096320	182.723237995637	76
5	1096515	182.741699221424	76
5	1096718	182.754552726414	76
5	1096920	182.797793082324	76
5	1097100	182.804118800975	76
5	1097298	182.86405431173	76
5	1097414	182.912641547225	76
5	1097610	182.95334450443	76
5	1097724	182.963457352979	76
5	1098033	183.018271881734	76
5	1098273	183.033443766471	76
5	1098399	183.047457627673	76
5	1098493	183.056190351126	76
5	1098879	183.09562628228	76
5	1099022	183.103516300891	76
5	1099139	183.108034174967	76
5	1099496	183.123899978666	76
5	1099636	183.176696836023	76
5	1099850	183.187070223637	76
5	1099978	183.194510506925	76
5	1100176	183.260173728115	76
5	1100522	183.318563435283	76
5	1100759	183.395873866045	76
5	1100979	183.421301237886	76
5	1101218	183.434065811785	76
5	1101428	183.444482833339	76
5	1101559	183.450045225064	76
5	1101671	183.487129992259	76
5	1101920	183.521930352831	76
5	1102111	183.557340349337	76
5	1102299	183.573574128114	76
5	1102485	183.586016037906	76
5	1102680	183.605086295669	76
5	1102924	183.618377916636	76
5	1103126	183.634751479774	76
5	1103471	183.674094951541	76
5	1103669	183.74988509909	76
5	1103855	183.803793936881	76
5	1104104	183.92223104731	76
5	1104272	183.932452376766	76
5	1104502	183.986785363019	76
5	1104730	184.050747611665	76
5	1104924	184.086472305633	76
5	1105123	184.101873362405	76
5	1105404	184.15094711575	76
5	1105741	184.203248204733	76
5	1105929	184.25839247754	76
5	1106039	184.266203524077	76
5	1106291	184.320065697143	76
5	1106414	184.336331641736	76
5	1106531	184.342428593671	76
5	1106739	184.35331975566	76
5	1106915	184.366725988347	76
5	1107261	184.381530180733	76
5	1107372	184.387297463795	76
5	1107631	184.460314291468	76
5	1107899	184.469469023698	76
5	1108007	184.474006827977	76
5	1108225	184.52260605928	76
5	1108422	184.562249356472	76
5	1108532	184.569911446945	76
5	1108721	184.650131964492	76
5	1108817	184.698661170841	76
5	1108946	184.717738434785	76
5	1109207	184.746551240576	76
5	1109555	184.81103739139	76
5	1109707	184.817893083005	76
5	1109862	184.823352946788	76
5	1110214	184.833937827957	76
5	1110324	184.84276849111	76
5	1110450	184.884323568109	76
5	1110828	184.938191361935	76
5	1110936	184.948090747199	76
5	1111100	184.976304804871	76
5	1111317	184.991024860844	76
5	1111510	185.000904720908	76
5	1111715	185.027659190153	76
5	1111813	185.103929023131	76
5	1112024	185.128498977698	76
5	1112209	185.163713516939	76
5	1112406	185.213076474183	76
5	1112592	185.267205096842	76
5	1112794	185.282352212295	76
5	1112904	185.290111582555	76
5	1113275	185.320134753077	76
5	1113424	185.328401403767	76
5	1113854	185.357174738779	76
5	1113980	185.365823309361	76
5	1114111	185.408303076913	76
5	1114312	185.482768856738	76
5	1114424	185.504373162074	76
5	1114607	185.53537401968	76
5	1114806	185.554739858068	76
5	1115018	185.581920084981	76
5	1115204	185.598931144137	76
5	1115330	185.6606668269	76
5	1115527	185.699390645743	76
5	1115797	185.711812979688	76
5	1115893	185.759143815867	76
5	1116100	185.772214490227	76
5	1116288	185.779123454445	76
5	1116402	185.787498219124	76
5	1116623	185.799724943663	76
5	1116824	185.813735122898	76
5	1117019	185.872116806742	76
5	1117129	185.909970081648	76
5	1117245	185.923817300244	76
5	1117501	186.010410790893	76
5	1117721	186.023245102548	76
5	1117919	186.118612098185	76
5	1118034	186.171900560069	76
5	1118147	186.244364183036	76
5	1118344	186.275447982016	76
5	1118532	186.288938352928	76
5	1118628	186.298055446482	76
5	1118840	186.324899609577	76
5	1118944	186.357409436635	76
5	1119132	186.362895073809	76
5	1119284	186.37273721101	76
5	1119488	186.400799478007	76
5	1119687	186.422565205766	76
5	1119789	186.428459959257	76
5	1119992	186.527537845641	76
5	1120191	186.630618442813	76
5	1120388	186.643125917498	76
5	1120482	186.64890262654	76
5	1120681	186.660867758566	76
5	1120807	186.723123788683	76
5	1121078	186.789642267199	76
5	1121270	186.79662978823	76
5	1121468	186.869521030978	76
5	1121653	186.88249820198	76
5	1121865	186.936098004192	76
5	1121983	186.955645140946	76
5	1122090	186.98551082935	76
5	1122274	187.0004740134	76
5	1122471	187.012911154518	76
5	1122579	187.021628632442	76
5	1122767	187.097976842194	76
5	1122912	187.123801991635	76
5	1123036	187.131056106718	76
5	1123146	187.172422890421	76
5	1123332	187.217260498417	76
5	1123531	187.246415355142	76
5	1123831	187.326812185577	76
5	1123924	187.334484455003	76
5	1124177	187.350599626591	76
5	1124456	187.361809717577	76
5	1124583	187.374912696872	76
5	1124792	187.431088500443	76
5	1124885	187.437943878062	76
5	1125009	187.446215416598	76
5	1125193	187.45481900664	76
5	1125292	187.53458777964	76
5	1125492	187.614582457549	76
5	1125694	187.694586612315	76
5	1125896	187.742483828122	76
5	1126095	187.782927461388	76
5	1126294	187.812219735415	76
5	1126491	187.838208450339	76
5	1126869	187.857013185415	76
5	1127005	187.866371408915	76
5	1127192	187.926498761345	76
5	1127532	187.937172157446	76
5	1127624	187.942452670185	76
5	1127824	187.960696379235	76
5	1128097	187.979539784451	76
5	1128376	188.016160938162	76
5	1128661	188.065444754196	76
5	1128772	188.130999190528	76
5	1128890	188.145600210503	76
5	1128984	188.170906287553	76
5	1129181	188.215354238672	76
5	1129459	188.247416503422	76
5	1129586	188.283157084806	76
5	1129843	188.309925257943	76
5	1130055	188.357217560629	76
5	1130241	188.417038874919	76
5	1130453	188.503922539524	76
5	1130634	188.525914875843	76
5	1130910	188.546722216219	76
5	1131134	188.559715252053	76
5	1131265	188.574172393463	76
5	1131449	188.586745729375	76
5	1131662	188.630157386466	76
5	1131934	188.678014486067	76
5	1132137	188.692012121288	76
5	1132325	188.720129860448	76
5	1132527	188.795749993301	76
5	1132658	188.884905377216	76
5	1132950	188.90408108509	76
5	1133150	188.912986685678	76
5	1133286	188.922228859948	76
5	1133498	188.933987096155	76
5	1133726	188.947143830155	76
5	1133912	189.100831373633	76
5	1134127	189.117924982603	76
5	1134315	189.171483488629	76
5	1134500	189.189155830487	76
5	1134626	189.209090402405	76
5	1134812	189.263816952317	76
5	1135030	189.29745615499	76
5	1135253	189.312224783565	76
5	1135532	189.383939873036	76
5	1135658	189.430295844545	76
5	1135861	189.469587935127	76
5	1136213	189.509335386473	76
5	1136332	189.515687743305	76
5	1136437	189.520553077561	76
5	1136633	189.560736805161	76
5	1136729	189.630609132005	76
5	1137004	189.660868111887	76
5	1137108	189.666565578168	76
5	1137294	189.679913474748	76
5	1137509	189.792610238097	76
5	1137627	189.829049317583	76
5	1137821	189.949206259098	76
5	1138081	189.976201847097	76
5	1138468	190.08290613517	76
5	1138600	190.101383299344	76
5	1138696	190.164617708492	76
5	1138820	190.177417034194	76
5	1138930	190.196298322244	76
5	1139116	190.211570407417	76
5	1139324	190.251341566973	76
5	1139572	190.264650771627	76
5	1139826	190.310693734214	76
5	1140022	190.321133668271	76
5	1140204	190.331039662267	76
5	1140318	190.346868531232	76
5	1140545	190.39310661527	76
5	1140653	190.39933750747	76
5	1140786	190.415829433997	76
5	1141192	190.433367212038	76
5	1141298	190.438684299339	76
5	1141411	190.533290518179	76
5	1141621	190.639454494045	76
5	1141844	190.665711330817	76
5	1142010	190.690008273422	76
5	1142435	190.74986041991	76
5	1142633	190.765211922144	76
5	1142740	190.770716589272	76
5	1143013	190.803244912976	76
5	1143196	190.855181122307	76
5	1143398	190.902165334996	76
5	1143584	190.967418339932	76
5	1143803	190.981754906672	76
5	1143915	191.060917041201	76
5	1144096	191.082447995097	76
5	1144206	191.113208982369	76
5	1144302	191.133667925243	76
5	1144501	191.16811141029	76
5	1144689	191.211391123154	76
5	1145009	191.232238911371	76
5	1145341	191.257743120125	76
5	1145486	191.263157822417	76
5	1145591	191.282057225867	76
5	1145777	191.290619327285	76
5	1145977	191.34529576384	76
[...]
850	1890029	309.480790758667	0.97222222222222
850	1890255	309.491256093216	0.98611111111111
850	1891609	309.784300242263	0.97260273972603
850	1891832	309.793485576812	0.98630136986301
850	1892862	310.040639434625	0.97297297297297
850	1892984	310.052384769174	0.98648648648649
850	1896638	310.625286252437	0.97333333333333
850	1896814	310.636711586986	0.98666666666667
850	1900882	310.970477470563	0.97368421052632
850	1901004	310.980942805112	0.98684210526316
850	1917883	313.530181985389	0.97402597402597
850	1918086	313.541927319938	0.98701298701299
850	1923467	314.357860821106	0.97435897435897
850	1923589	314.367686155655	0.98717948717949
850	1956054	320.223952787885	0.9746835443038
850	1956289	320.234418122434	0.9873417721519
850	1984045	324.646582526907	0.975
850	1984556	324.668407861456	0.9875
850	1988511	325.288309006143	0.97530864197531
850	1988637	325.299414340692	0.98765432098765
850	1995872	326.53554410125	0.97560975609756
850	1996145	326.553449435799	0.98780487804878
850	1999357	327.096535103651	0.97590361445783
850	1999479	327.1057204382	0.98795180722892
850	2024710	331.426352415674	0.97619047619048
850	2024978	331.436177750223	0.98809523809524
850	2030345	332.459147755868	0.97647058823529
850	2030474	332.468333090417	0.98823529411765
850	2051918	335.670586677005	0.97674418604651
850	2052040	335.682012011554	0.98837209302326
850	2054227	336.17728349356	0.97701149425287
850	2054648	336.194868828109	0.98850574712644
850	2078414	340.017425215882	0.97727272727273
850	2078538	340.029490550431	0.98863636363636
850	2087341	341.367107951558	0.97752808988764
850	2087967	341.388933286107	0.98876404494382
850	2111237	344.968088225137	0.97777777777778
850	2111403	344.980473559686	0.98888888888889
850	2128645	348.286851520645	0.97802197802198
850	2128769	348.299236855194	0.98901098901099
850	2133970	348.993804265538	0.97826086956522
850	2134112	349.005229600087	0.98913043478261
850	2150006	351.280023875939	0.97849462365591
850	2150240	351.291449210488	0.98924731182796
850	2165542	353.499418929319	0.97872340425532
850	2165664	353.508604263868	0.98936170212766
850	2185397	356.237504459886	0.97894736842105
850	2185519	356.247009794435	0.98947368421053
850	2191769	357.249286961316	0.97916666666667
850	2192396	357.271432295865	0.98958333333333
850	2207764	360.210088650819	0.97938144329897
850	2207886	360.218953985368	0.98969072164948
850	2212459	361.03626482873	0.97959183673469
850	2212791	361.047050163279	0.98979591836735
850	2229793	363.375456402355	0.97979797979798
850	2230047	363.387521736904	0.98989898989899
850	2244269	365.464765538811	0.98
850	2244593	365.48171087336	0.99
860	964148	161.69827067781	76
860	977512	163.622103245573	76
860	998500	167.176356391833	76
860	1014503	169.691392756373	76
860	1020015	170.60413766657	76
860	1039565	173.820378293637	76
860	1078701	180.42398905259	76
860	1113504	185.344653926997	76
860	1117311	185.995401408529	76
860	1120873	186.772712884835	76
860	1130719	188.537585869689	76
860	1138277	190.065656752806	76
860	1152262	192.179137048718	76
860	1167080	194.417456780732	76
860	1175619	195.676498268913	76
860	1180976	196.646671131019	76
860	1194294	199.124711380027	76
860	1207163	201.142255269915	76
860	1218734	203.219841055394	76
860	1241099	206.412929783192	76
860	1268237	211.205918028966	76
860	1276185	212.580623044651	76
860	1280286	213.035604863036	76
860	1301780	216.271180808175	76
860	1311038	217.973961869767	76
860	1322664	219.872410925015	76
860	1351171	223.987309160607	76
860	1360833	225.008502210031	76
860	1370928	226.979916492849	76
860	1373323	227.428673078159	76
860	1382580	228.865740524903	76
860	1383706	229.054444962799	76
860	1399956	231.380381848655	76
860	1400709	231.553226486956	76
860	1404181	232.224021465837	76
860	1438716	238.087483727296	76
860	1460664	241.452116571845	76
860	1472181	243.178535801369	76
860	1510924	249.344079914618	76
860	1513368	249.545780266475	76
860	1516082	249.859217468277	76
860	1534719	253.153770834322	76
860	1556506	256.927012820938	76
860	1558119	257.39426961007	76
860	1561864	258.016697892345	76
860	1565359	258.83759908264	76
860	1578443	261.10911061816	76
860	1614546	267.068514506064	76
860	1627265	269.200638287198	76
860	1630033	269.750329823709	76
860	1644792	271.828280594389	76
860	1665213	274.625711007406	76
860	1667556	274.893022951864	76
860	1702308	280.27893205475	76
860	1712160	281.72304733365	76
860	1751095	287.697772499053	76
860	1756697	288.621992640523	76
860	1772049	290.985410336679	76
860	1780673	292.366743316215	76
860	1785734	292.904064481635	76
860	1789881	293.353011849576	76
860	1811049	296.868104015226	76
860	1813934	297.627885259962	76
860	1817134	298.145599913683	76
860	1827595	299.888541452594	76
860	1883085	308.274492491908	76
860	1886529	309.101492236998	76
860	1889520	309.424137275998	76
860	1923973	314.444480807576	76
860	1937589	316.731137332254	76
860	1939816	317.154092416376	76
860	1944853	318.171712308569	76
860	1957350	320.445372774591	76
860	1964134	321.469578367885	76
860	1992206	325.815432839079	76
860	1995907	326.538607669611	76
860	2000646	327.396564446656	76
860	2058817	337.024217402975	76
860	2063979	337.748499850104	76
860	2071749	338.875702681429	76
860	2075498	339.448545363008	76
860	2080897	340.277015707574	76
860	2101629	343.58195300724	76
860	2102376	343.706954730381	76
860	2116487	346.074558464176	76
860	2120970	346.686430699188	76
860	2146112	350.730014962351	76
860	2148504	351.098732772436	76
860	2161952	352.917509827843	76
860	2162485	352.964646783307	76
860	2176402	354.821756685226	76
860	2204168	359.686952229959	76
860	2206263	360.026429060867	76
860	2237705	364.584903507302	76
860	2251203	367.037119976857	76
860	2256902	367.978026888143	76
860	2270473	370.44008997088	76
860	2279924	371.988319234626	76
860	2282720	372.37961734469	76
860	2318468	378.159455251896	76
862	964397	161.715840060174	76
862	977703	163.638072627937	76
862	998904	167.197253774197	76
862	1014703	169.707362138737	76
862	1020206	170.621067048934	76
862	1039847	173.837947676001	76
862	1079081	180.439318434954	76
862	1113980	185.365823309361	76
862	1117501	186.010410790893	76
862	1121078	186.789642267199	76
862	1131134	188.559715252053	76
862	1138468	190.08290613517	76
862	1152546	192.194786431082	76
862	1167650	194.446066163096	76
862	1175810	195.695027651277	76
862	1181167	196.665200513383	76
862	1194632	199.148440762391	76
862	1207444	201.160464652279	76
862	1218927	203.236450437758	76
862	1241290	206.426019165556	76
862	1268428	211.22092741133	76
862	1276470	212.598512427015	76
862	1280525	213.0522142454	76
862	1302500	216.300430190539	76
862	1311404	217.991339252131	76
862	1323030	219.887100307379	76
862	1351571	224.005198542971	76
862	1361114	225.024791592395	76
862	1371138	226.995245875213	76
862	1373514	227.447202460523	76
862	1382773	228.883309907267	76
862	1383895	229.070094345163	76
862	1400149	231.395391231019	76
862	1400900	231.56919586932	76
862	1404481	232.241270848201	76
862	1439140	238.10929310966	76
862	1460855	241.468725954209	76
862	1472420	243.194185183733	76
862	1511117	249.361009296982	76
862	1513563	249.560789648839	76
862	1516286	249.875506850641	76
862	1535014	253.169420216686	76
862	1556695	256.941382203302	76
862	1558385	257.410558992434	76
862	1562055	258.033627274709	76
862	1565550	258.854848465004	76
862	1578743	261.125400000524	76
862	1614993	267.090643888428	76
862	1627475	269.216607669562	76
862	1630224	269.767579206073	76
862	1644983	271.845209976753	76
862	1665693	274.64720038977	76
862	1667747	274.910272334228	76
862	1702723	280.299781437114	76
862	1712349	281.736456716014	76
862	1751286	287.714701881417	76
862	1757121	288.640282022887	76
862	1772369	291.004259719043	76
862	1780906	292.383672698579	76
862	1786033	292.922273863999	76
862	1790072	293.36930123194	76
862	1811240	296.88471339759	76
862	1814226	297.642894642326	76
862	1817550	298.170289296047	76
862	1827804	299.903550834958	76
862	1883275	308.289501874272	76
862	1887018	309.126485619362	76
862	1889810	309.441066658362	76
862	1924165	314.46077018994	76
862	1937783	316.748386714618	76
862	1940093	317.16910179874	76
862	1945047	318.188641690933	76
862	1957630	320.461022156955	76
862	1964551	321.488507750249	76
862	1992620	325.836922221443	76
862	1996401	326.569489051975	76
862	2000837	327.41349382902	76
862	2059354	337.044474785339	76
862	2064273	337.764469232468	76
862	2072053	338.892952063793	76
862	2075691	339.464514745372	76
862	2081090	340.294585089938	76
862	2101866	343.596642389604	76
862	2102567	343.722284112745	76
862	2116682	346.09084784654	76
862	2121162	346.703680081552	76
862	2146788	350.760544344715	76
862	2148695	351.1140621548	76
862	2162402	352.939367210207	76
862	2162745	352.981256165671	76
862	2176690	354.83740606759	76
862	2204904	359.712681612323	76
862	2206982	360.059278443231	76
862	2237919	364.600232889666	76
862	2251548	367.054049359221	76
862	2257244	368.000156270507	76
862	2270963	370.463819353244	76
862	2280351	372.01268861699	76
862	2283087	372.394306727054	76
862	2318657	378.17510463426	76
863	62	1	76
863	247	3.246336603067	76
863	273	3.770451086418	76
863	392	5.375555057935	76
863	470	7.061512608764	76
863	34734	13.375703691595	76
863	55229	16.418677710394	76
863	55323	16.4269192651	76
863	82559	20.50844639903	76
863	96261	22.484587422051	76
863	99651	22.884728472504	76
863	118446	25.721502335708	76
863	123856	26.730221298477	76
863	156667	32.177753821256	76
863	175826	34.570295096706	76
863	185522	36.327988875301	76
863	198883	38.721866855523	76
863	215114	41.409869820869	76
863	217353	41.72667679555	76
863	218397	41.944524651262	76
863	250652	47.401057452918	76
863	267309	50.271157751186	76
863	277344	51.633982124215	76
863	301379	55.511994390164	76
863	317558	58.638586858562	76
863	321453	59.000865797653	76
863	322712	59.142058973214	76
863	323612	59.336572875723	76
863	325048	59.650359012173	76
863	329041	60.381467275412	76
863	332908	60.906310208444	76
863	335903	61.484250793102	76
863	373492	67.368124449813	76
863	380039	68.1764168142	76
863	385064	68.821822862876	76
863	396037	70.652119081421	76
863	409469	72.688329739517	76
863	424144	75.058993731594	76
863	431174	75.960945237654	76
863	454201	79.846327796515	76
863	457200	80.225878835694	76
863	468066	81.908584710201	76
863	474280	82.746423386751	76
863	474673	82.775200648288	76
863	475279	82.874025901352	76
863	478589	83.380838360057	76
863	482433	83.91041821942	76
863	482908	83.969654429245	76
863	516852	89.716043197263	76
863	550170	95.31549238469	76
863	550833	95.394848918388	76
863	553663	95.924372068484	76
863	559372	96.629170516749	76
863	563285	97.118180830033	76
863	573645	98.757667065818	76
863	587047	101.014596289647	76
863	612740	105.171147096087	76
863	619120	106.117151338376	76
863	633640	108.808566110025	76
863	636891	109.35324188414	76
863	640080	109.927558914863	76
863	651490	111.308279306472	76
863	659965	112.37077021012	76
863	661989	112.779632533484	76
863	695450	118.432451259912	76
863	728883	123.910144382896	76
863	739280	125.433243242462	76
863	740763	125.572957333032	76
863	748526	126.607743020227	76
863	758691	128.213716925819	76
863	760530	128.443586707035	76
863	782996	132.68287593243	76
863	791217	134.104591422642	76
863	799668	135.137094455277	76
863	816978	138.255281844229	76
863	830898	140.434910276342	76
863	831473	140.582528327432	76
863	838330	141.588785612594	76
863	850383	143.245632570364	76
863	854809	143.976630844353	76
863	860999	145.0286465098	76
863	870105	146.463547748587	76
863	877255	147.461303102673	76
863	894539	150.683643233544	76
863	909450	152.616161727632	76
863	916230	153.710079150959	76
863	917028	153.740276165708	76
863	925993	154.971387249312	76
863	930717	155.840994118987	76
863	945595	158.482531009933	76
863	2345389	382.607060379273	76
863	2352504	383.518053211692	76
863	2354980	383.95332484163	76
863	2372639	386.668428044984	76
863	2382814	388.620021736441	76
863	2390638	390.251537762669	76
863	2396251	391.455523235328	76
863	2396888	391.561644190127	76
863	2406848	393.258482859244	76
863	2417462	394.582332740262	76
863	2433102	397.257404389173	76
863	2437120	398.064596125751	76
863	2500840	407.774975179634	76
863	2510423	408.7975989159	76
863	2512455	409.080553410179	76
863	2515160	409.461367447492	76
863	2518186	409.899719086724	76
863	2530874	411.681678179468	76
863	2534639	412.324089927799	76
863	2584977	421.228398281767	76
863	2595373	423.351073598508	76
863	2601496	424.053830289834	76
863	2602890	424.103257447508	76
863	2607962	424.917151983272	76
863	2627643	427.975615657364	76
863	2631973	428.556124904343	76
864	964148	161.69827067781	-nan
864	964397	161.715840060174	1
864	977512	163.622103245573	0.5
864	977703	163.638072627937	1
864	998500	167.176356391833	0.66666666666667
864	998904	167.197253774197	1
864	1014503	169.691392756373	0.75
864	1014703	169.707362138737	1
864	1020015	170.60413766657	0.8
864	1020206	170.621067048934	1
864	1039565	173.820378293637	0.83333333333333
864	1039847	173.837947676001	1
864	1078701	180.42398905259	0.85714285714286
864	1079081	180.439318434954	1
864	1113504	185.344653926997	0.875
864	1113980	185.365823309361	1
864	1117311	185.995401408529	0.88888888888889
864	1117501	186.010410790893	1
864	1120873	186.772712884835	0.9
864	1121078	186.789642267199	1
864	1130719	188.537585869689	0.90909090909091
864	1131134	188.559715252053	1
864	1138277	190.065656752806	0.91666666666667
864	1138468	190.08290613517	1
864	1152262	192.179137048718	0.92307692307692
864	1152546	192.194786431082	1
864	1167080	194.417456780732	0.92857142857143
864	1167650	194.446066163096	1
864	1175619	195.676498268913	0.93333333333333
864	1175810	195.695027651277	1
864	1180976	196.646671131019	0.9375
864	1181167	196.665200513383	1
864	1194294	199.124711380027	0.94117647058824
864	1194632	199.148440762391	1
864	1207163	201.142255269915	0.94444444444444
864	1207444	201.160464652279	1
864	1218734	203.219841055394	0.94736842105263
864	1218927	203.236450437758	1
864	1241099	206.412929783192	0.95
864	1241290	206.426019165556	1
864	1268237	211.205918028966	0.95238095238095
864	1268428	211.22092741133	1
864	1276185	212.580623044651	0.95454545454545
864	1276470	212.598512427015	1
864	1280286	213.035604863036	0.95652173913043
864	1280525	213.0522142454	1
864	1301780	216.271180808175	0.95833333333333
864	1302500	216.300430190539	1
864	1311038	217.973961869767	0.96
864	1311404	217.991339252131	1
864	1322664	219.872410925015	0.96153846153846
864	1323030	219.887100307379	1
864	1351171	223.987309160607	0.96296296296296
864	1351571	224.005198542971	1
864	1360833	225.008502210031	0.96428571428571
864	1361114	225.024791592395	1
864	1370928	226.979916492849	0.96551724137931
864	1371138	226.995245875213	1
864	1373323	227.428673078159	0.96666666666667
864	1373514	227.447202460523	1
864	1382580	228.865740524903	0.96774193548387
864	1382773	228.883309907267	1
864	1383706	229.054444962799	0.96875
864	1383895	229.070094345163	1
864	1399956	231.380381848655	0.96969696969697
864	1400149	231.395391231019	1
864	1400709	231.553226486956	0.97058823529412
864	1400900	231.56919586932	1
864	1404181	232.224021465837	0.97142857142857
864	1404481	232.241270848201	1
864	1438716	238.087483727296	0.97222222222222
864	1439140	238.10929310966	1
864	1460664	241.452116571845	0.97297297297297
864	1460855	241.468725954209	1
864	1472181	243.178535801369	0.97368421052632
864	1472420	243.194185183733	1
864	1510924	249.344079914618	0.97435897435897
864	1511117	249.361009296982	1
864	1513368	249.545780266475	0.975
864	1513563	249.560789648839	1
864	1516082	249.859217468277	0.97560975609756
864	1516286	249.875506850641	1
864	1534719	253.153770834322	0.97619047619048
864	1535014	253.169420216686	1
864	1556506	256.927012820938	0.97674418604651
864	1556695	256.941382203302	1
864	1558119	257.39426961007	0.97727272727273
864	1558385	257.410558992434	1
864	1561864	258.016697892345	0.97777777777778
864	1562055	258.033627274709	1
864	1565359	258.83759908264	0.97826086956522
864	1565550	258.854848465004	1
864	1578443	261.10911061816	0.97872340425532
864	1578743	261.125400000524	1
864	1614546	267.068514506064	0.97916666666667
864	1614993	267.090643888428	1
864	1627265	269.200638287198	0.97959183673469
864	1627475	269.216607669562	1
864	1630033	269.750329823709	0.98
864	1630224	269.767579206073	1
864	1644792	271.828280594389	0.98039215686275
864	1644983	271.845209976753	1
864	1665213	274.625711007406	0.98076923076923
864	1665693	274.64720038977	1
864	1667556	274.893022951864	0.9811320754717
864	1667747	274.910272334228	1
864	1702308	280.27893205475	0.98148148148148
864	1702723	280.299781437114	1
864	1712160	281.72304733365	0.98181818181818
864	1712349	281.736456716014	1
864	1751095	287.697772499053	0.98214285714286
864	1751286	287.714701881417	1
864	1756697	288.621992640523	0.98245614035088
864	1757121	288.640282022887	1
864	1772049	290.985410336679	0.98275862068966
864	1772369	291.004259719043	1
864	1780673	292.366743316215	0.98305084745763
864	1780906	292.383672698579	1
864	1785734	292.904064481635	0.98333333333333
864	1786033	292.922273863999	1
864	1789881	293.353011849576	0.98360655737705
864	1790072	293.36930123194	1
864	1811049	296.868104015226	0.98387096774194
864	1811240	296.88471339759	1
864	1813934	297.627885259962	0.98412698412698
864	1814226	297.642894642326	1
864	1817134	298.145599913683	0.984375
864	1817550	298.170289296047	1
864	1827595	299.888541452594	0.98461538461538
864	1827804	299.903550834958	1
864	1883085	308.274492491908	0.98484848484848
864	1883275	308.289501874272	1
864	1886529	309.101492236998	0.98507462686567
864	1887018	309.126485619362	1
864	1889520	309.424137275998	0.98529411764706
864	1889810	309.441066658362	1
864	1923973	314.444480807576	0.98550724637681
864	1924165	314.46077018994	1
864	1937589	316.731137332254	0.98571428571429
864	1937783	316.748386714618	1
864	1939816	317.154092416376	0.98591549295775
864	1940093	317.16910179874	1
864	1944853	318.171712308569	0.98611111111111
864	1945047	318.188641690933	1
864	1957350	320.445372774591	0.98630136986301
864	1957630	320.461022156955	1
864	1964134	321.469578367885	0.98648648648649
864	1964551	321.488507750249	1
864	1992206	325.815432839079	0.98666666666667
864	1992620	325.836922221443	1
864	1995907	326.538607669611	0.98684210526316
864	1996401	326.569489051975	1
864	2000646	327.396564446656	0.98701298701299
864	2000837	327.41349382902	1
864	2058817	337.024217402975	0.98717948717949
864	2059354	337.044474785339	1
864	2063979	337.748499850104	0.9873417721519
864	2064273	337.764469232468	1
864	2071749	338.875702681429	0.9875
864	2072053	338.892952063793	1
864	2075498	339.448545363008	0.98765432098765
864	2075691	339.464514745372	1
864	2080897	340.277015707574	0.98780487804878
864	2081090	340.294585089938	1
864	2101629	343.58195300724	0.98795180722892
864	2101866	343.596642389604	1
864	2102376	343.706954730381	0.98809523809524
864	2102567	343.722284112745	1
864	2116487	346.074558464176	0.98823529411765
864	2116682	346.09084784654	1
864	2120970	346.686430699188	0.98837209302326
864	2121162	346.703680081552	1
864	2146112	350.730014962351	0.98850574712644
864	2146788	350.760544344715	1
864	2148504	351.098732772436	0.98863636363636
864	2148695	351.1140621548	1
864	2161952	352.917509827843	0.98876404494382
864	2162402	352.939367210207	1
864	2162485	352.964646783307	0.98888888888889
864	2162745	352.981256165671	1
864	2176402	354.821756685226	0.98901098901099
864	2176690	354.83740606759	1
864	2204168	359.686952229959	0.98913043478261
864	2204904	359.712681612323	1
864	2206263	360.026429060867	0.98924731182796
864	2206982	360.059278443231	1
864	2237705	364.584903507302	0.98936170212766
864	2237919	364.600232889666	1
864	2251203	367.037119976857	0.98947368421053
864	2251548	367.054049359221	1
864	2256902	367.978026888143	0.98958333333333
864	2257244	368.000156270507	1
864	2270473	370.44008997088	0.98969072164948
864	2270963	370.463819353244	1
864	2279924	371.988319234626	0.98979591836735
864	2280351	372.01268861699	1
864	2282720	372.37961734469	0.98989898989899
864	2283087	372.394306727054	1
864	2318468	378.159455251896	0.99
864	2318657	378.17510463426	1
