file 2554654 1472908199                                         
version 2
run DSME-0-20160903-13:06:06-14497
attr beaconInterval 10s
attr configname DSME
attr datetime 20160903-13:06:06
attr experiment DSME
attr inifile simulations/omnetpp.ini
attr iterationvars "$packetLength=76B, $sendInt=2, $beaconInterval=10s, $0=10s/2, $1=3 * 10s"
attr iterationvars2 "$packetLength=76B, $sendInt=2, $beaconInterval=10s, $0=10s/2, $1=3 * 10s, $repetition=0"
attr measurement "$packetLength=76B, $sendInt=2, $beaconInterval=10s, $0=10s/2, $1=3 * 10s"
attr network multi_gateway.Net802154MultiGateway
attr packetLength 76B
attr processid 14497
attr repetition 0
attr replication #0
attr resultdir ../results
attr runnumber 0
attr seedset 0
attr sendInt 2
param **.configurator.addStaticRoutes false
param **.dumpRoutes false
param **.dumpTopology false
param **.host[*].**.gpsr.beaconInterval "${beaconInterval = 10s}"
param **.host[*].**.gpsr.maxJitter ${$beaconInterval/2}
param **.host[*].**.gpsr.neighborValidityInterval "${3 * $beaconInterval}"
param **.host[*].**.gpsr.positionByteLength "2 B"
param **.host[*].**.gpsr.routingStrategy "\"StraightestPath\""
param **.host[*].**.trafficgen.continueSendingDummyPackets true
param **.host[*].**.trafficgen.coolDownDuration 15s
param **.host[*].**.trafficgen.destAddresses "\"host[0].wrappedHost(modulepath)\""
param **.host[*].**.trafficgen.packetLength "${packetLength = 76B}"
param **.host[*].**.trafficgen.sendInterval "exponential(${sendInt=1.0..2.5 step 0.25}s)"
param **.host[*].**.trafficgen.warmUpDuration 160s
param **.host[*].**.wlan[*].mac.macDSMEGTSExpirationTime 255
param **.host[*].**.wlan[*].macType "\"DSME\""
param **.host[*].**.wlan[*].radio.receiver.minInterferencePower "-100 dBm"
param **.host[*].hostType "\"SimpleHost\""
param **.host[*].mobilityType "\"StaticConcentricWrappingMobility\""
param **.host[0].**.trafficgen.numPackets 0
param **.host[0].**.wlan[*].mac.isPANCoordinator true
param **.host[1..].**.trafficgen.numPackets 100
param **.numHosts 62
param **.radioMedium.rangeFilter "\"interferenceRange\""
param **.routingTable.addressType "\"modulepath\""
param **.routingTableType "\"GenericRoutingTable\""

vector 9  Net802154MultiGateway.host[0].wrappedHost.trafficgen  sentDummyPk:vector(packetBytes)  ETV
attr interpolationmode  none
attr source  sentDummyPk
attr title  "dummy packets sent, vector(packetBytes)"
vector 25  Net802154MultiGateway.host[1].wrappedHost.trafficgen  sentDummyPk:vector(packetBytes)  ETV
attr interpolationmode  none
attr source  sentDummyPk
attr title  "dummy packets sent, vector(packetBytes)"
vector 41  Net802154MultiGateway.host[2].wrappedHost.trafficgen  sentDummyPk:vector(packetBytes)  ETV
attr interpolationmode  none
attr source  sentDummyPk
attr title  "dummy packets sent, vector(packetBytes)"
vector 57  Net802154MultiGateway.host[3].wrappedHost.trafficgen  sentDummyPk:vector(packetBytes)  ETV
attr interpolationmode  none
attr source  sentDummyPk
attr title  "dummy packets sent, vector(packetBytes)"
vector 73  Net802154MultiGateway.host[4].wrappedHost.trafficgen  sentDummyPk:vector(packetBytes)  ETV
attr interpolationmode  none
attr source  sentDummyPk
attr title  "dummy packets sent, vector(packetBytes)"
vector 89  Net802154MultiGateway.host[5].wrappedHost.trafficgen  sentDummyPk:vector(packetBytes)  ETV
attr interpolationmode  none
attr source  sentDummyPk
attr title  "dummy packets sent, vector(packetBytes)"
vector 105  Net802154MultiGateway.host[6].wrappedHost.trafficgen  sentDummyPk:vector(packetBytes)  ETV
attr interpolationmode  none
attr source  sentDummyPk
attr title  "dummy packets sent, vector(packetBytes)"
vector 121  Net802154MultiGateway.host[7].wrappedHost.trafficgen  sentDummyPk:vector(packetBytes)  ETV
attr interpolationmode  none
attr source  sentDummyPk
attr title  "dummy packets sent, vector(packetBytes)"
vector 137  Net802154MultiGateway.host[8].wrappedHost.trafficgen  sentDummyPk:vector(packetBytes)  ETV
attr interpolationmode  none
attr source  sentDummyPk
attr title  "dummy packets sent, vector(packetBytes)"
vector 153  Net802154MultiGateway.host[9].wrappedHost.trafficgen  sentDummyPk:vector(packetBytes)  ETV
attr interpolationmode  none
attr source  sentDummyPk
attr title  "dummy packets sent, vector(packetBytes)"
vector 169  Net802154MultiGateway.host[10].wrappedHost.trafficgen  sentDummyPk:vector(packetBytes)  ETV
attr interpolationmode  none
attr source  sentDummyPk
attr title  "dummy packets sent, vector(packetBytes)"
vector 185  Net802154MultiGateway.host[11].wrappedHost.trafficgen  sentDummyPk:vector(packetBytes)  ETV
attr interpolationmode  none
attr source  sentDummyPk
attr title  "dummy packets sent, vector(packetBytes)"
vector 201  Net802154MultiGateway.host[12].wrappedHost.trafficgen  sentDummyPk:vector(packetBytes)  ETV
attr interpolationmode  none
attr source  sentDummyPk
attr title  "dummy packets sent, vector(packetBytes)"
vector 217  Net802154MultiGateway.host[13].wrappedHost.trafficgen  sentDummyPk:vector(packetBytes)  ETV
attr interpolationmode  none
attr source  sentDummyPk
attr title  "dummy packets sent, vector(packetBytes)"
vector 233  Net802154MultiGateway.host[14].wrappedHost.trafficgen  sentDummyPk:vector(packetBytes)  ETV
attr interpolationmode  none
attr source  sentDummyPk
attr title  "dummy packets sent, vector(packetBytes)"
vector 249  Net802154MultiGateway.host[15].wrappedHost.trafficgen  sentDummyPk:vector(packetBytes)  ETV
attr interpolationmode  none
attr source  sentDummyPk
attr title  "dummy packets sent, vector(packetBytes)"
vector 265  Net802154MultiGateway.host[16].wrappedHost.trafficgen  sentDummyPk:vector(packetBytes)  ETV
attr interpolationmode  none
attr source  sentDummyPk
attr title  "dummy packets sent, vector(packetBytes)"
vector 281  Net802154MultiGateway.host[17].wrappedHost.trafficgen  sentDummyPk:vector(packetBytes)  ETV
attr interpolationmode  none
attr source  sentDummyPk
attr title  "dummy packets sent, vector(packetBytes)"
vector 297  Net802154MultiGateway.host[18].wrappedHost.trafficgen  sentDummyPk:vector(packetBytes)  ETV
attr interpolationmode  none
attr source  sentDummyPk
attr title  "dummy packets sent, vector(packetBytes)"
vector 313  Net802154MultiGateway.host[19].wrappedHost.trafficgen  sentDummyPk:vector(packetBytes)  ETV
attr interpolationmode  none
attr source  sentDummyPk
attr title  "dummy packets sent, vector(packetBytes)"
vector 329  Net802154MultiGateway.host[20].wrappedHost.trafficgen  sentDummyPk:vector(packetBytes)  ETV
attr interpolationmode  none
attr source  sentDummyPk
attr title  "dummy packets sent, vector(packetBytes)"
vector 345  Net802154MultiGateway.host[21].wrappedHost.trafficgen  sentDummyPk:vector(packetBytes)  ETV
attr interpolationmode  none
attr source  sentDummyPk
attr title  "dummy packets sent, vector(packetBytes)"
vector 361  Net802154MultiGateway.host[22].wrappedHost.trafficgen  sentDummyPk:vector(packetBytes)  ETV
attr interpolationmode  none
attr source  sentDummyPk
attr title  "dummy packets sent, vector(packetBytes)"
vector 377  Net802154MultiGateway.host[23].wrappedHost.trafficgen  sentDummyPk:vector(packetBytes)  ETV
attr interpolationmode  none
attr source  sentDummyPk
attr title  "dummy packets sent, vector(packetBytes)"
vector 393  Net802154MultiGateway.host[24].wrappedHost.trafficgen  sentDummyPk:vector(packetBytes)  ETV
attr interpolationmode  none
attr source  sentDummyPk
attr title  "dummy packets sent, vector(packetBytes)"
vector 409  Net802154MultiGateway.host[25].wrappedHost.trafficgen  sentDummyPk:vector(packetBytes)  ETV
attr interpolationmode  none
attr source  sentDummyPk
attr title  "dummy packets sent, vector(packetBytes)"
vector 425  Net802154MultiGateway.host[26].wrappedHost.trafficgen  sentDummyPk:vector(packetBytes)  ETV
attr interpolationmode  none
attr source  sentDummyPk
attr title  "dummy packets sent, vector(packetBytes)"
vector 441  Net802154MultiGateway.host[27].wrappedHost.trafficgen  sentDummyPk:vector(packetBytes)  ETV
attr interpolationmode  none
attr source  sentDummyPk
attr title  "dummy packets sent, vector(packetBytes)"
vector 457  Net802154MultiGateway.host[28].wrappedHost.trafficgen  sentDummyPk:vector(packetBytes)  ETV
attr interpolationmode  none
attr source  sentDummyPk
attr title  "dummy packets sent, vector(packetBytes)"
vector 473  Net802154MultiGateway.host[29].wrappedHost.trafficgen  sentDummyPk:vector(packetBytes)  ETV
attr interpolationmode  none
attr source  sentDummyPk
attr title  "dummy packets sent, vector(packetBytes)"
vector 489  Net802154MultiGateway.host[30].wrappedHost.trafficgen  sentDummyPk:vector(packetBytes)  ETV
attr interpolationmode  none
attr source  sentDummyPk
attr title  "dummy packets sent, vector(packetBytes)"
vector 505  Net802154MultiGateway.host[31].wrappedHost.trafficgen  sentDummyPk:vector(packetBytes)  ETV
attr interpolationmode  none
attr source  sentDummyPk
attr title  "dummy packets sent, vector(packetBytes)"
vector 521  Net802154MultiGateway.host[32].wrappedHost.trafficgen  sentDummyPk:vector(packetBytes)  ETV
attr interpolationmode  none
attr source  sentDummyPk
attr title  "dummy packets sent, vector(packetBytes)"
vector 537  Net802154MultiGateway.host[33].wrappedHost.trafficgen  sentDummyPk:vector(packetBytes)  ETV
attr interpolationmode  none
attr source  sentDummyPk
attr title  "dummy packets sent, vector(packetBytes)"
vector 553  Net802154MultiGateway.host[34].wrappedHost.trafficgen  sentDummyPk:vector(packetBytes)  ETV
attr interpolationmode  none
attr source  sentDummyPk
attr title  "dummy packets sent, vector(packetBytes)"
vector 569  Net802154MultiGateway.host[35].wrappedHost.trafficgen  sentDummyPk:vector(packetBytes)  ETV
attr interpolationmode  none
attr source  sentDummyPk
attr title  "dummy packets sent, vector(packetBytes)"
vector 585  Net802154MultiGateway.host[36].wrappedHost.trafficgen  sentDummyPk:vector(packetBytes)  ETV
attr interpolationmode  none
attr source  sentDummyPk
attr title  "dummy packets sent, vector(packetBytes)"
vector 601  Net802154MultiGateway.host[37].wrappedHost.trafficgen  sentDummyPk:vector(packetBytes)  ETV
attr interpolationmode  none
attr source  sentDummyPk
attr title  "dummy packets sent, vector(packetBytes)"
vector 617  Net802154MultiGateway.host[38].wrappedHost.trafficgen  sentDummyPk:vector(packetBytes)  ETV
attr interpolationmode  none
attr source  sentDummyPk
attr title  "dummy packets sent, vector(packetBytes)"
vector 633  Net802154MultiGateway.host[39].wrappedHost.trafficgen  sentDummyPk:vector(packetBytes)  ETV
attr interpolationmode  none
attr source  sentDummyPk
attr title  "dummy packets sent, vector(packetBytes)"
vector 649  Net802154MultiGateway.host[40].wrappedHost.trafficgen  sentDummyPk:vector(packetBytes)  ETV
attr interpolationmode  none
attr source  sentDummyPk
attr title  "dummy packets sent, vector(packetBytes)"
vector 665  Net802154MultiGateway.host[41].wrappedHost.trafficgen  sentDummyPk:vector(packetBytes)  ETV
attr interpolationmode  none
attr source  sentDummyPk
attr title  "dummy packets sent, vector(packetBytes)"
vector 681  Net802154MultiGateway.host[42].wrappedHost.trafficgen  sentDummyPk:vector(packetBytes)  ETV
attr interpolationmode  none
attr source  sentDummyPk
attr title  "dummy packets sent, vector(packetBytes)"
vector 697  Net802154MultiGateway.host[43].wrappedHost.trafficgen  sentDummyPk:vector(packetBytes)  ETV
attr interpolationmode  none
attr source  sentDummyPk
attr title  "dummy packets sent, vector(packetBytes)"
vector 713  Net802154MultiGateway.host[44].wrappedHost.trafficgen  sentDummyPk:vector(packetBytes)  ETV
attr interpolationmode  none
attr source  sentDummyPk
attr title  "dummy packets sent, vector(packetBytes)"
vector 729  Net802154MultiGateway.host[45].wrappedHost.trafficgen  sentDummyPk:vector(packetBytes)  ETV
attr interpolationmode  none
attr source  sentDummyPk
attr title  "dummy packets sent, vector(packetBytes)"
vector 745  Net802154MultiGateway.host[46].wrappedHost.trafficgen  sentDummyPk:vector(packetBytes)  ETV
attr interpolationmode  none
attr source  sentDummyPk
attr title  "dummy packets sent, vector(packetBytes)"
vector 761  Net802154MultiGateway.host[47].wrappedHost.trafficgen  sentDummyPk:vector(packetBytes)  ETV
attr interpolationmode  none
attr source  sentDummyPk
attr title  "dummy packets sent, vector(packetBytes)"
vector 777  Net802154MultiGateway.host[48].wrappedHost.trafficgen  sentDummyPk:vector(packetBytes)  ETV
attr interpolationmode  none
attr source  sentDummyPk
attr title  "dummy packets sent, vector(packetBytes)"
vector 793  Net802154MultiGateway.host[49].wrappedHost.trafficgen  sentDummyPk:vector(packetBytes)  ETV
attr interpolationmode  none
attr source  sentDummyPk
attr title  "dummy packets sent, vector(packetBytes)"
vector 809  Net802154MultiGateway.host[50].wrappedHost.trafficgen  sentDummyPk:vector(packetBytes)  ETV
attr interpolationmode  none
attr source  sentDummyPk
attr title  "dummy packets sent, vector(packetBytes)"
vector 825  Net802154MultiGateway.host[51].wrappedHost.trafficgen  sentDummyPk:vector(packetBytes)  ETV
attr interpolationmode  none
attr source  sentDummyPk
attr title  "dummy packets sent, vector(packetBytes)"
vector 841  Net802154MultiGateway.host[52].wrappedHost.trafficgen  sentDummyPk:vector(packetBytes)  ETV
attr interpolationmode  none
attr source  sentDummyPk
attr title  "dummy packets sent, vector(packetBytes)"
vector 857  Net802154MultiGateway.host[53].wrappedHost.trafficgen  sentDummyPk:vector(packetBytes)  ETV
attr interpolationmode  none
attr source  sentDummyPk
attr title  "dummy packets sent, vector(packetBytes)"
vector 873  Net802154MultiGateway.host[54].wrappedHost.trafficgen  sentDummyPk:vector(packetBytes)  ETV
attr interpolationmode  none
attr source  sentDummyPk
attr title  "dummy packets sent, vector(packetBytes)"
vector 889  Net802154MultiGateway.host[55].wrappedHost.trafficgen  sentDummyPk:vector(packetBytes)  ETV
attr interpolationmode  none
attr source  sentDummyPk
attr title  "dummy packets sent, vector(packetBytes)"
vector 905  Net802154MultiGateway.host[56].wrappedHost.trafficgen  sentDummyPk:vector(packetBytes)  ETV
attr interpolationmode  none
attr source  sentDummyPk
attr title  "dummy packets sent, vector(packetBytes)"
vector 921  Net802154MultiGateway.host[57].wrappedHost.trafficgen  sentDummyPk:vector(packetBytes)  ETV
attr interpolationmode  none
attr source  sentDummyPk
attr title  "dummy packets sent, vector(packetBytes)"
vector 937  Net802154MultiGateway.host[58].wrappedHost.trafficgen  sentDummyPk:vector(packetBytes)  ETV
attr interpolationmode  none
attr source  sentDummyPk
attr title  "dummy packets sent, vector(packetBytes)"
vector 953  Net802154MultiGateway.host[59].wrappedHost.trafficgen  sentDummyPk:vector(packetBytes)  ETV
attr interpolationmode  none
attr source  sentDummyPk
attr title  "dummy packets sent, vector(packetBytes)"
vector 969  Net802154MultiGateway.host[60].wrappedHost.trafficgen  sentDummyPk:vector(packetBytes)  ETV
attr interpolationmode  none
attr source  sentDummyPk
attr title  "dummy packets sent, vector(packetBytes)"
vector 985  Net802154MultiGateway.host[61].wrappedHost.trafficgen  sentDummyPk:vector(packetBytes)  ETV
attr interpolationmode  none
attr source  sentDummyPk
attr title  "dummy packets sent, vector(packetBytes)"
vector 15  Net802154MultiGateway.host[0].wrappedHost.wlan[0].mac  broadDataSentDown:vector(packetBytes)  ETV
attr interpolationmode  none
attr source  broadcastDataSentDown
attr title  "broadcast packet sent down of type DATA, vector(packetBytes)"
vector 111  Net802154MultiGateway.host[6].wrappedHost.wlan[0].mac  broadDataSentDown:vector(packetBytes)  ETV
attr interpolationmode  none
attr source  broadcastDataSentDown
attr title  "broadcast packet sent down of type DATA, vector(packetBytes)"
vector 94  Net802154MultiGateway.host[5].wrappedHost.wlan[0].mac  unicastDataSentDown:vector(packetBytes)  ETV
attr interpolationmode  none
attr source  unicastDataSentDown
attr title  "unicast packet sent down of type DATA, vector(packetBytes)"
vector 110  Net802154MultiGateway.host[6].wrappedHost.wlan[0].mac  unicastDataSentDown:vector(packetBytes)  ETV
attr interpolationmode  none
attr source  unicastDataSentDown
attr title  "unicast packet sent down of type DATA, vector(packetBytes)"
vector 46  Net802154MultiGateway.host[2].wrappedHost.wlan[0].mac  unicastDataSentDown:vector(packetBytes)  ETV
attr interpolationmode  none
attr source  unicastDataSentDown
attr title  "unicast packet sent down of type DATA, vector(packetBytes)"
vector 30  Net802154MultiGateway.host[1].wrappedHost.wlan[0].mac  unicastDataSentDown:vector(packetBytes)  ETV
attr interpolationmode  none
attr source  unicastDataSentDown
attr title  "unicast packet sent down of type DATA, vector(packetBytes)"
vector 270  Net802154MultiGateway.host[16].wrappedHost.wlan[0].mac  unicastDataSentDown:vector(packetBytes)  ETV
attr interpolationmode  none
attr source  unicastDataSentDown
attr title  "unicast packet sent down of type DATA, vector(packetBytes)"
vector 286  Net802154MultiGateway.host[17].wrappedHost.wlan[0].mac  unicastDataSentDown:vector(packetBytes)  ETV
attr interpolationmode  none
attr source  unicastDataSentDown
attr title  "unicast packet sent down of type DATA, vector(packetBytes)"
vector 78  Net802154MultiGateway.host[4].wrappedHost.wlan[0].mac  unicastDataSentDown:vector(packetBytes)  ETV
attr interpolationmode  none
attr source  unicastDataSentDown
attr title  "unicast packet sent down of type DATA, vector(packetBytes)"
vector 207  Net802154MultiGateway.host[12].wrappedHost.wlan[0].mac  broadDataSentDown:vector(packetBytes)  ETV
attr interpolationmode  none
attr source  broadcastDataSentDown
attr title  "broadcast packet sent down of type DATA, vector(packetBytes)"
vector 303  Net802154MultiGateway.host[18].wrappedHost.wlan[0].mac  broadDataSentDown:vector(packetBytes)  ETV
attr interpolationmode  none
attr source  broadcastDataSentDown
attr title  "broadcast packet sent down of type DATA, vector(packetBytes)"
vector 351  Net802154MultiGateway.host[21].wrappedHost.wlan[0].mac  broadDataSentDown:vector(packetBytes)  ETV
attr interpolationmode  none
attr source  broadcastDataSentDown
attr title  "broadcast packet sent down of type DATA, vector(packetBytes)"
vector 383  Net802154MultiGateway.host[23].wrappedHost.wlan[0].mac  broadDataSentDown:vector(packetBytes)  ETV
attr interpolationmode  none
attr source  broadcastDataSentDown
attr title  "broadcast packet sent down of type DATA, vector(packetBytes)"
vector 62  Net802154MultiGateway.host[3].wrappedHost.wlan[0].mac  unicastDataSentDown:vector(packetBytes)  ETV
attr interpolationmode  none
attr source  unicastDataSentDown
attr title  "unicast packet sent down of type DATA, vector(packetBytes)"
vector 399  Net802154MultiGateway.host[24].wrappedHost.wlan[0].mac  broadDataSentDown:vector(packetBytes)  ETV
attr interpolationmode  none
attr source  broadcastDataSentDown
attr title  "broadcast packet sent down of type DATA, vector(packetBytes)"
vector 495  Net802154MultiGateway.host[30].wrappedHost.wlan[0].mac  broadDataSentDown:vector(packetBytes)  ETV
attr interpolationmode  none
attr source  broadcastDataSentDown
attr title  "broadcast packet sent down of type DATA, vector(packetBytes)"
vector 414  Net802154MultiGateway.host[25].wrappedHost.wlan[0].mac  unicastDataSentDown:vector(packetBytes)  ETV
attr interpolationmode  none
attr source  unicastDataSentDown
attr title  "unicast packet sent down of type DATA, vector(packetBytes)"
vector 287  Net802154MultiGateway.host[17].wrappedHost.wlan[0].mac  broadDataSentDown:vector(packetBytes)  ETV
attr interpolationmode  none
attr source  broadcastDataSentDown
attr title  "broadcast packet sent down of type DATA, vector(packetBytes)"
vector 447  Net802154MultiGateway.host[27].wrappedHost.wlan[0].mac  broadDataSentDown:vector(packetBytes)  ETV
attr interpolationmode  none
attr source  broadcastDataSentDown
attr title  "broadcast packet sent down of type DATA, vector(packetBytes)"
vector 174  Net802154MultiGateway.host[10].wrappedHost.wlan[0].mac  unicastDataSentDown:vector(packetBytes)  ETV
attr interpolationmode  none
attr source  unicastDataSentDown
attr title  "unicast packet sent down of type DATA, vector(packetBytes)"
vector 318  Net802154MultiGateway.host[19].wrappedHost.wlan[0].mac  unicastDataSentDown:vector(packetBytes)  ETV
attr interpolationmode  none
attr source  unicastDataSentDown
attr title  "unicast packet sent down of type DATA, vector(packetBytes)"
vector 302  Net802154MultiGateway.host[18].wrappedHost.wlan[0].mac  unicastDataSentDown:vector(packetBytes)  ETV
attr interpolationmode  none
attr source  unicastDataSentDown
attr title  "unicast packet sent down of type DATA, vector(packetBytes)"
vector 159  Net802154MultiGateway.host[9].wrappedHost.wlan[0].mac  broadDataSentDown:vector(packetBytes)  ETV
attr interpolationmode  none
attr source  broadcastDataSentDown
attr title  "broadcast packet sent down of type DATA, vector(packetBytes)"
vector 31  Net802154MultiGateway.host[1].wrappedHost.wlan[0].mac  broadDataSentDown:vector(packetBytes)  ETV
attr interpolationmode  none
attr source  broadcastDataSentDown
attr title  "broadcast packet sent down of type DATA, vector(packetBytes)"
vector 367  Net802154MultiGateway.host[22].wrappedHost.wlan[0].mac  broadDataSentDown:vector(packetBytes)  ETV
attr interpolationmode  none
attr source  broadcastDataSentDown
attr title  "broadcast packet sent down of type DATA, vector(packetBytes)"
vector 415  Net802154MultiGateway.host[25].wrappedHost.wlan[0].mac  broadDataSentDown:vector(packetBytes)  ETV
attr interpolationmode  none
attr source  broadcastDataSentDown
attr title  "broadcast packet sent down of type DATA, vector(packetBytes)"
vector 319  Net802154MultiGateway.host[19].wrappedHost.wlan[0].mac  broadDataSentDown:vector(packetBytes)  ETV
attr interpolationmode  none
attr source  broadcastDataSentDown
attr title  "broadcast packet sent down of type DATA, vector(packetBytes)"
vector 222  Net802154MultiGateway.host[13].wrappedHost.wlan[0].mac  unicastDataSentDown:vector(packetBytes)  ETV
attr interpolationmode  none
attr source  unicastDataSentDown
attr title  "unicast packet sent down of type DATA, vector(packetBytes)"
vector 462  Net802154MultiGateway.host[28].wrappedHost.wlan[0].mac  unicastDataSentDown:vector(packetBytes)  ETV
attr interpolationmode  none
attr source  unicastDataSentDown
attr title  "unicast packet sent down of type DATA, vector(packetBytes)"
vector 255  Net802154MultiGateway.host[15].wrappedHost.wlan[0].mac  broadDataSentDown:vector(packetBytes)  ETV
attr interpolationmode  none
attr source  broadcastDataSentDown
attr title  "broadcast packet sent down of type DATA, vector(packetBytes)"
vector 670  Net802154MultiGateway.host[41].wrappedHost.wlan[0].mac  unicastDataSentDown:vector(packetBytes)  ETV
attr interpolationmode  none
attr source  unicastDataSentDown
attr title  "unicast packet sent down of type DATA, vector(packetBytes)"
vector 223  Net802154MultiGateway.host[13].wrappedHost.wlan[0].mac  broadDataSentDown:vector(packetBytes)  ETV
attr interpolationmode  none
attr source  broadcastDataSentDown
attr title  "broadcast packet sent down of type DATA, vector(packetBytes)"
vector 350  Net802154MultiGateway.host[21].wrappedHost.wlan[0].mac  unicastDataSentDown:vector(packetBytes)  ETV
attr interpolationmode  none
attr source  unicastDataSentDown
attr title  "unicast packet sent down of type DATA, vector(packetBytes)"
vector 446  Net802154MultiGateway.host[27].wrappedHost.wlan[0].mac  unicastDataSentDown:vector(packetBytes)  ETV
attr interpolationmode  none
attr source  unicastDataSentDown
attr title  "unicast packet sent down of type DATA, vector(packetBytes)"
vector 574  Net802154MultiGateway.host[35].wrappedHost.wlan[0].mac  unicastDataSentDown:vector(packetBytes)  ETV
attr interpolationmode  none
attr source  unicastDataSentDown
attr title  "unicast packet sent down of type DATA, vector(packetBytes)"
vector 687  Net802154MultiGateway.host[42].wrappedHost.wlan[0].mac  broadDataSentDown:vector(packetBytes)  ETV
attr interpolationmode  none
attr source  broadcastDataSentDown
attr title  "broadcast packet sent down of type DATA, vector(packetBytes)"
vector 686  Net802154MultiGateway.host[42].wrappedHost.wlan[0].mac  unicastDataSentDown:vector(packetBytes)  ETV
attr interpolationmode  none
attr source  unicastDataSentDown
attr title  "unicast packet sent down of type DATA, vector(packetBytes)"
vector 158  Net802154MultiGateway.host[9].wrappedHost.wlan[0].mac  unicastDataSentDown:vector(packetBytes)  ETV
attr interpolationmode  none
attr source  unicastDataSentDown
attr title  "unicast packet sent down of type DATA, vector(packetBytes)"
vector 126  Net802154MultiGateway.host[7].wrappedHost.wlan[0].mac  unicastDataSentDown:vector(packetBytes)  ETV
attr interpolationmode  none
attr source  unicastDataSentDown
attr title  "unicast packet sent down of type DATA, vector(packetBytes)"
vector 95  Net802154MultiGateway.host[5].wrappedHost.wlan[0].mac  broadDataSentDown:vector(packetBytes)  ETV
attr interpolationmode  none
attr source  broadcastDataSentDown
attr title  "broadcast packet sent down of type DATA, vector(packetBytes)"
vector 79  Net802154MultiGateway.host[4].wrappedHost.wlan[0].mac  broadDataSentDown:vector(packetBytes)  ETV
attr interpolationmode  none
attr source  broadcastDataSentDown
attr title  "broadcast packet sent down of type DATA, vector(packetBytes)"
vector 271  Net802154MultiGateway.host[16].wrappedHost.wlan[0].mac  broadDataSentDown:vector(packetBytes)  ETV
attr interpolationmode  none
attr source  broadcastDataSentDown
attr title  "broadcast packet sent down of type DATA, vector(packetBytes)"
vector 206  Net802154MultiGateway.host[12].wrappedHost.wlan[0].mac  unicastDataSentDown:vector(packetBytes)  ETV
attr interpolationmode  none
attr source  unicastDataSentDown
attr title  "unicast packet sent down of type DATA, vector(packetBytes)"
vector 239  Net802154MultiGateway.host[14].wrappedHost.wlan[0].mac  broadDataSentDown:vector(packetBytes)  ETV
attr interpolationmode  none
attr source  broadcastDataSentDown
attr title  "broadcast packet sent down of type DATA, vector(packetBytes)"
vector 191  Net802154MultiGateway.host[11].wrappedHost.wlan[0].mac  broadDataSentDown:vector(packetBytes)  ETV
attr interpolationmode  none
attr source  broadcastDataSentDown
attr title  "broadcast packet sent down of type DATA, vector(packetBytes)"
vector 63  Net802154MultiGateway.host[3].wrappedHost.wlan[0].mac  broadDataSentDown:vector(packetBytes)  ETV
attr interpolationmode  none
attr source  broadcastDataSentDown
attr title  "broadcast packet sent down of type DATA, vector(packetBytes)"
vector 382  Net802154MultiGateway.host[23].wrappedHost.wlan[0].mac  unicastDataSentDown:vector(packetBytes)  ETV
attr interpolationmode  none
attr source  unicastDataSentDown
attr title  "unicast packet sent down of type DATA, vector(packetBytes)"
vector 735  Net802154MultiGateway.host[45].wrappedHost.wlan[0].mac  broadDataSentDown:vector(packetBytes)  ETV
attr interpolationmode  none
attr source  broadcastDataSentDown
attr title  "broadcast packet sent down of type DATA, vector(packetBytes)"
vector 175  Net802154MultiGateway.host[10].wrappedHost.wlan[0].mac  broadDataSentDown:vector(packetBytes)  ETV
attr interpolationmode  none
attr source  broadcastDataSentDown
attr title  "broadcast packet sent down of type DATA, vector(packetBytes)"
vector 478  Net802154MultiGateway.host[29].wrappedHost.wlan[0].mac  unicastDataSentDown:vector(packetBytes)  ETV
attr interpolationmode  none
attr source  unicastDataSentDown
attr title  "unicast packet sent down of type DATA, vector(packetBytes)"
vector 47  Net802154MultiGateway.host[2].wrappedHost.wlan[0].mac  broadDataSentDown:vector(packetBytes)  ETV
attr interpolationmode  none
attr source  broadcastDataSentDown
attr title  "broadcast packet sent down of type DATA, vector(packetBytes)"
vector 463  Net802154MultiGateway.host[28].wrappedHost.wlan[0].mac  broadDataSentDown:vector(packetBytes)  ETV
attr interpolationmode  none
attr source  broadcastDataSentDown
attr title  "broadcast packet sent down of type DATA, vector(packetBytes)"
vector 127  Net802154MultiGateway.host[7].wrappedHost.wlan[0].mac  broadDataSentDown:vector(packetBytes)  ETV
attr interpolationmode  none
attr source  broadcastDataSentDown
attr title  "broadcast packet sent down of type DATA, vector(packetBytes)"
vector 543  Net802154MultiGateway.host[33].wrappedHost.wlan[0].mac  broadDataSentDown:vector(packetBytes)  ETV
attr interpolationmode  none
attr source  broadcastDataSentDown
attr title  "broadcast packet sent down of type DATA, vector(packetBytes)"
vector 398  Net802154MultiGateway.host[24].wrappedHost.wlan[0].mac  unicastDataSentDown:vector(packetBytes)  ETV
attr interpolationmode  none
attr source  unicastDataSentDown
attr title  "unicast packet sent down of type DATA, vector(packetBytes)"
vector 542  Net802154MultiGateway.host[33].wrappedHost.wlan[0].mac  unicastDataSentDown:vector(packetBytes)  ETV
attr interpolationmode  none
attr source  unicastDataSentDown
attr title  "unicast packet sent down of type DATA, vector(packetBytes)"
vector 590  Net802154MultiGateway.host[36].wrappedHost.wlan[0].mac  unicastDataSentDown:vector(packetBytes)  ETV
attr interpolationmode  none
attr source  unicastDataSentDown
attr title  "unicast packet sent down of type DATA, vector(packetBytes)"
vector 479  Net802154MultiGateway.host[29].wrappedHost.wlan[0].mac  broadDataSentDown:vector(packetBytes)  ETV
attr interpolationmode  none
attr source  broadcastDataSentDown
attr title  "broadcast packet sent down of type DATA, vector(packetBytes)"
vector 335  Net802154MultiGateway.host[20].wrappedHost.wlan[0].mac  broadDataSentDown:vector(packetBytes)  ETV
attr interpolationmode  none
attr source  broadcastDataSentDown
attr title  "broadcast packet sent down of type DATA, vector(packetBytes)"
vector 527  Net802154MultiGateway.host[32].wrappedHost.wlan[0].mac  broadDataSentDown:vector(packetBytes)  ETV
attr interpolationmode  none
attr source  broadcastDataSentDown
attr title  "broadcast packet sent down of type DATA, vector(packetBytes)"
vector 526  Net802154MultiGateway.host[32].wrappedHost.wlan[0].mac  unicastDataSentDown:vector(packetBytes)  ETV
attr interpolationmode  none
attr source  unicastDataSentDown
attr title  "unicast packet sent down of type DATA, vector(packetBytes)"
vector 511  Net802154MultiGateway.host[31].wrappedHost.wlan[0].mac  broadDataSentDown:vector(packetBytes)  ETV
attr interpolationmode  none
attr source  broadcastDataSentDown
attr title  "broadcast packet sent down of type DATA, vector(packetBytes)"
vector 143  Net802154MultiGateway.host[8].wrappedHost.wlan[0].mac  broadDataSentDown:vector(packetBytes)  ETV
attr interpolationmode  none
attr source  broadcastDataSentDown
attr title  "broadcast packet sent down of type DATA, vector(packetBytes)"
vector 718  Net802154MultiGateway.host[44].wrappedHost.wlan[0].mac  unicastDataSentDown:vector(packetBytes)  ETV
attr interpolationmode  none
attr source  unicastDataSentDown
attr title  "unicast packet sent down of type DATA, vector(packetBytes)"
vector 254  Net802154MultiGateway.host[15].wrappedHost.wlan[0].mac  unicastDataSentDown:vector(packetBytes)  ETV
attr interpolationmode  none
attr source  unicastDataSentDown
attr title  "unicast packet sent down of type DATA, vector(packetBytes)"
vector 142  Net802154MultiGateway.host[8].wrappedHost.wlan[0].mac  unicastDataSentDown:vector(packetBytes)  ETV
attr interpolationmode  none
attr source  unicastDataSentDown
attr title  "unicast packet sent down of type DATA, vector(packetBytes)"
vector 766  Net802154MultiGateway.host[47].wrappedHost.wlan[0].mac  unicastDataSentDown:vector(packetBytes)  ETV
attr interpolationmode  none
attr source  unicastDataSentDown
attr title  "unicast packet sent down of type DATA, vector(packetBytes)"
vector 190  Net802154MultiGateway.host[11].wrappedHost.wlan[0].mac  unicastDataSentDown:vector(packetBytes)  ETV
attr interpolationmode  none
attr source  unicastDataSentDown
attr title  "unicast packet sent down of type DATA, vector(packetBytes)"
vector 366  Net802154MultiGateway.host[22].wrappedHost.wlan[0].mac  unicastDataSentDown:vector(packetBytes)  ETV
attr interpolationmode  none
attr source  unicastDataSentDown
attr title  "unicast packet sent down of type DATA, vector(packetBytes)"
vector 734  Net802154MultiGateway.host[45].wrappedHost.wlan[0].mac  unicastDataSentDown:vector(packetBytes)  ETV
attr interpolationmode  none
attr source  unicastDataSentDown
attr title  "unicast packet sent down of type DATA, vector(packetBytes)"
vector 654  Net802154MultiGateway.host[40].wrappedHost.wlan[0].mac  unicastDataSentDown:vector(packetBytes)  ETV
attr interpolationmode  none
attr source  unicastDataSentDown
attr title  "unicast packet sent down of type DATA, vector(packetBytes)"
vector 430  Net802154MultiGateway.host[26].wrappedHost.wlan[0].mac  unicastDataSentDown:vector(packetBytes)  ETV
attr interpolationmode  none
attr source  unicastDataSentDown
attr title  "unicast packet sent down of type DATA, vector(packetBytes)"
vector 558  Net802154MultiGateway.host[34].wrappedHost.wlan[0].mac  unicastDataSentDown:vector(packetBytes)  ETV
attr interpolationmode  none
attr source  unicastDataSentDown
attr title  "unicast packet sent down of type DATA, vector(packetBytes)"
vector 750  Net802154MultiGateway.host[46].wrappedHost.wlan[0].mac  unicastDataSentDown:vector(packetBytes)  ETV
attr interpolationmode  none
attr source  unicastDataSentDown
attr title  "unicast packet sent down of type DATA, vector(packetBytes)"
vector 830  Net802154MultiGateway.host[51].wrappedHost.wlan[0].mac  unicastDataSentDown:vector(packetBytes)  ETV
attr interpolationmode  none
attr source  unicastDataSentDown
attr title  "unicast packet sent down of type DATA, vector(packetBytes)"
vector 814  Net802154MultiGateway.host[50].wrappedHost.wlan[0].mac  unicastDataSentDown:vector(packetBytes)  ETV
attr interpolationmode  none
attr source  unicastDataSentDown
attr title  "unicast packet sent down of type DATA, vector(packetBytes)"
vector 798  Net802154MultiGateway.host[49].wrappedHost.wlan[0].mac  unicastDataSentDown:vector(packetBytes)  ETV
attr interpolationmode  none
attr source  unicastDataSentDown
attr title  "unicast packet sent down of type DATA, vector(packetBytes)"
vector 238  Net802154MultiGateway.host[14].wrappedHost.wlan[0].mac  unicastDataSentDown:vector(packetBytes)  ETV
attr interpolationmode  none
attr source  unicastDataSentDown
attr title  "unicast packet sent down of type DATA, vector(packetBytes)"
vector 894  Net802154MultiGateway.host[55].wrappedHost.wlan[0].mac  unicastDataSentDown:vector(packetBytes)  ETV
attr interpolationmode  none
attr source  unicastDataSentDown
attr title  "unicast packet sent down of type DATA, vector(packetBytes)"
vector 926  Net802154MultiGateway.host[57].wrappedHost.wlan[0].mac  unicastDataSentDown:vector(packetBytes)  ETV
attr interpolationmode  none
attr source  unicastDataSentDown
attr title  "unicast packet sent down of type DATA, vector(packetBytes)"
vector 494  Net802154MultiGateway.host[30].wrappedHost.wlan[0].mac  unicastDataSentDown:vector(packetBytes)  ETV
attr interpolationmode  none
attr source  unicastDataSentDown
attr title  "unicast packet sent down of type DATA, vector(packetBytes)"
vector 990  Net802154MultiGateway.host[61].wrappedHost.wlan[0].mac  unicastDataSentDown:vector(packetBytes)  ETV
attr interpolationmode  none
attr source  unicastDataSentDown
attr title  "unicast packet sent down of type DATA, vector(packetBytes)"
vector 510  Net802154MultiGateway.host[31].wrappedHost.wlan[0].mac  unicastDataSentDown:vector(packetBytes)  ETV
attr interpolationmode  none
attr source  unicastDataSentDown
attr title  "unicast packet sent down of type DATA, vector(packetBytes)"
vector 606  Net802154MultiGateway.host[37].wrappedHost.wlan[0].mac  unicastDataSentDown:vector(packetBytes)  ETV
attr interpolationmode  none
attr source  unicastDataSentDown
attr title  "unicast packet sent down of type DATA, vector(packetBytes)"
vector 782  Net802154MultiGateway.host[48].wrappedHost.wlan[0].mac  unicastDataSentDown:vector(packetBytes)  ETV
attr interpolationmode  none
attr source  unicastDataSentDown
attr title  "unicast packet sent down of type DATA, vector(packetBytes)"
vector 334  Net802154MultiGateway.host[20].wrappedHost.wlan[0].mac  unicastDataSentDown:vector(packetBytes)  ETV
attr interpolationmode  none
attr source  unicastDataSentDown
attr title  "unicast packet sent down of type DATA, vector(packetBytes)"
vector 910  Net802154MultiGateway.host[56].wrappedHost.wlan[0].mac  unicastDataSentDown:vector(packetBytes)  ETV
attr interpolationmode  none
attr source  unicastDataSentDown
attr title  "unicast packet sent down of type DATA, vector(packetBytes)"
vector 815  Net802154MultiGateway.host[50].wrappedHost.wlan[0].mac  broadDataSentDown:vector(packetBytes)  ETV
attr interpolationmode  none
attr source  broadcastDataSentDown
attr title  "broadcast packet sent down of type DATA, vector(packetBytes)"
vector 559  Net802154MultiGateway.host[34].wrappedHost.wlan[0].mac  broadDataSentDown:vector(packetBytes)  ETV
attr interpolationmode  none
attr source  broadcastDataSentDown
attr title  "broadcast packet sent down of type DATA, vector(packetBytes)"
vector 975  Net802154MultiGateway.host[60].wrappedHost.wlan[0].mac  broadDataSentDown:vector(packetBytes)  ETV
attr interpolationmode  none
attr source  broadcastDataSentDown
attr title  "broadcast packet sent down of type DATA, vector(packetBytes)"
vector 991  Net802154MultiGateway.host[61].wrappedHost.wlan[0].mac  broadDataSentDown:vector(packetBytes)  ETV
attr interpolationmode  none
attr source  broadcastDataSentDown
attr title  "broadcast packet sent down of type DATA, vector(packetBytes)"
vector 702  Net802154MultiGateway.host[43].wrappedHost.wlan[0].mac  unicastDataSentDown:vector(packetBytes)  ETV
attr interpolationmode  none
attr source  unicastDataSentDown
attr title  "unicast packet sent down of type DATA, vector(packetBytes)"
vector 575  Net802154MultiGateway.host[35].wrappedHost.wlan[0].mac  broadDataSentDown:vector(packetBytes)  ETV
attr interpolationmode  none
attr source  broadcastDataSentDown
attr title  "broadcast packet sent down of type DATA, vector(packetBytes)"
vector 847  Net802154MultiGateway.host[52].wrappedHost.wlan[0].mac  broadDataSentDown:vector(packetBytes)  ETV
attr interpolationmode  none
attr source  broadcastDataSentDown
attr title  "broadcast packet sent down of type DATA, vector(packetBytes)"
vector 783  Net802154MultiGateway.host[48].wrappedHost.wlan[0].mac  broadDataSentDown:vector(packetBytes)  ETV
attr interpolationmode  none
attr source  broadcastDataSentDown
attr title  "broadcast packet sent down of type DATA, vector(packetBytes)"
vector 878  Net802154MultiGateway.host[54].wrappedHost.wlan[0].mac  unicastDataSentDown:vector(packetBytes)  ETV
attr interpolationmode  none
attr source  unicastDataSentDown
attr title  "unicast packet sent down of type DATA, vector(packetBytes)"
vector 846  Net802154MultiGateway.host[52].wrappedHost.wlan[0].mac  unicastDataSentDown:vector(packetBytes)  ETV
attr interpolationmode  none
attr source  unicastDataSentDown
attr title  "unicast packet sent down of type DATA, vector(packetBytes)"
vector 895  Net802154MultiGateway.host[55].wrappedHost.wlan[0].mac  broadDataSentDown:vector(packetBytes)  ETV
attr interpolationmode  none
attr source  broadcastDataSentDown
attr title  "broadcast packet sent down of type DATA, vector(packetBytes)"
vector 655  Net802154MultiGateway.host[40].wrappedHost.wlan[0].mac  broadDataSentDown:vector(packetBytes)  ETV
attr interpolationmode  none
attr source  broadcastDataSentDown
attr title  "broadcast packet sent down of type DATA, vector(packetBytes)"
vector 958  Net802154MultiGateway.host[59].wrappedHost.wlan[0].mac  unicastDataSentDown:vector(packetBytes)  ETV
attr interpolationmode  none
attr source  unicastDataSentDown
attr title  "unicast packet sent down of type DATA, vector(packetBytes)"
vector 607  Net802154MultiGateway.host[37].wrappedHost.wlan[0].mac  broadDataSentDown:vector(packetBytes)  ETV
attr interpolationmode  none
attr source  broadcastDataSentDown
attr title  "broadcast packet sent down of type DATA, vector(packetBytes)"
vector 943  Net802154MultiGateway.host[58].wrappedHost.wlan[0].mac  broadDataSentDown:vector(packetBytes)  ETV
attr interpolationmode  none
attr source  broadcastDataSentDown
attr title  "broadcast packet sent down of type DATA, vector(packetBytes)"
vector 942  Net802154MultiGateway.host[58].wrappedHost.wlan[0].mac  unicastDataSentDown:vector(packetBytes)  ETV
attr interpolationmode  none
attr source  unicastDataSentDown
attr title  "unicast packet sent down of type DATA, vector(packetBytes)"
vector 431  Net802154MultiGateway.host[26].wrappedHost.wlan[0].mac  broadDataSentDown:vector(packetBytes)  ETV
attr interpolationmode  none
attr source  broadcastDataSentDown
attr title  "broadcast packet sent down of type DATA, vector(packetBytes)"
vector 927  Net802154MultiGateway.host[57].wrappedHost.wlan[0].mac  broadDataSentDown:vector(packetBytes)  ETV
attr interpolationmode  none
attr source  broadcastDataSentDown
attr title  "broadcast packet sent down of type DATA, vector(packetBytes)"
vector 751  Net802154MultiGateway.host[46].wrappedHost.wlan[0].mac  broadDataSentDown:vector(packetBytes)  ETV
attr interpolationmode  none
attr source  broadcastDataSentDown
attr title  "broadcast packet sent down of type DATA, vector(packetBytes)"
vector 959  Net802154MultiGateway.host[59].wrappedHost.wlan[0].mac  broadDataSentDown:vector(packetBytes)  ETV
attr interpolationmode  none
attr source  broadcastDataSentDown
attr title  "broadcast packet sent down of type DATA, vector(packetBytes)"
vector 911  Net802154MultiGateway.host[56].wrappedHost.wlan[0].mac  broadDataSentDown:vector(packetBytes)  ETV
attr interpolationmode  none
attr source  broadcastDataSentDown
attr title  "broadcast packet sent down of type DATA, vector(packetBytes)"
vector 591  Net802154MultiGateway.host[36].wrappedHost.wlan[0].mac  broadDataSentDown:vector(packetBytes)  ETV
attr interpolationmode  none
attr source  broadcastDataSentDown
attr title  "broadcast packet sent down of type DATA, vector(packetBytes)"
vector 703  Net802154MultiGateway.host[43].wrappedHost.wlan[0].mac  broadDataSentDown:vector(packetBytes)  ETV
attr interpolationmode  none
attr source  broadcastDataSentDown
attr title  "broadcast packet sent down of type DATA, vector(packetBytes)"
vector 719  Net802154MultiGateway.host[44].wrappedHost.wlan[0].mac  broadDataSentDown:vector(packetBytes)  ETV
attr interpolationmode  none
attr source  broadcastDataSentDown
attr title  "broadcast packet sent down of type DATA, vector(packetBytes)"
vector 799  Net802154MultiGateway.host[49].wrappedHost.wlan[0].mac  broadDataSentDown:vector(packetBytes)  ETV
attr interpolationmode  none
attr source  broadcastDataSentDown
attr title  "broadcast packet sent down of type DATA, vector(packetBytes)"
vector 767  Net802154MultiGateway.host[47].wrappedHost.wlan[0].mac  broadDataSentDown:vector(packetBytes)  ETV
attr interpolationmode  none
attr source  broadcastDataSentDown
attr title  "broadcast packet sent down of type DATA, vector(packetBytes)"
vector 879  Net802154MultiGateway.host[54].wrappedHost.wlan[0].mac  broadDataSentDown:vector(packetBytes)  ETV
attr interpolationmode  none
attr source  broadcastDataSentDown
attr title  "broadcast packet sent down of type DATA, vector(packetBytes)"
vector 639  Net802154MultiGateway.host[39].wrappedHost.wlan[0].mac  broadDataSentDown:vector(packetBytes)  ETV
attr interpolationmode  none
attr source  broadcastDataSentDown
attr title  "broadcast packet sent down of type DATA, vector(packetBytes)"
vector 671  Net802154MultiGateway.host[41].wrappedHost.wlan[0].mac  broadDataSentDown:vector(packetBytes)  ETV
attr interpolationmode  none
attr source  broadcastDataSentDown
attr title  "broadcast packet sent down of type DATA, vector(packetBytes)"
vector 831  Net802154MultiGateway.host[51].wrappedHost.wlan[0].mac  broadDataSentDown:vector(packetBytes)  ETV
attr interpolationmode  none
attr source  broadcastDataSentDown
attr title  "broadcast packet sent down of type DATA, vector(packetBytes)"
vector 638  Net802154MultiGateway.host[39].wrappedHost.wlan[0].mac  unicastDataSentDown:vector(packetBytes)  ETV
attr interpolationmode  none
attr source  unicastDataSentDown
attr title  "unicast packet sent down of type DATA, vector(packetBytes)"
vector 863  Net802154MultiGateway.host[53].wrappedHost.wlan[0].mac  broadDataSentDown:vector(packetBytes)  ETV
attr interpolationmode  none
attr source  broadcastDataSentDown
attr title  "broadcast packet sent down of type DATA, vector(packetBytes)"
vector 974  Net802154MultiGateway.host[60].wrappedHost.wlan[0].mac  unicastDataSentDown:vector(packetBytes)  ETV
attr interpolationmode  none
attr source  unicastDataSentDown
attr title  "unicast packet sent down of type DATA, vector(packetBytes)"
vector 862  Net802154MultiGateway.host[53].wrappedHost.wlan[0].mac  unicastDataSentDown:vector(packetBytes)  ETV
attr interpolationmode  none
attr source  unicastDataSentDown
attr title  "unicast packet sent down of type DATA, vector(packetBytes)"
vector 623  Net802154MultiGateway.host[38].wrappedHost.wlan[0].mac  broadDataSentDown:vector(packetBytes)  ETV
attr interpolationmode  none
attr source  broadcastDataSentDown
attr title  "broadcast packet sent down of type DATA, vector(packetBytes)"
vector 622  Net802154MultiGateway.host[38].wrappedHost.wlan[0].mac  unicastDataSentDown:vector(packetBytes)  ETV
attr interpolationmode  none
attr source  unicastDataSentDown
attr title  "unicast packet sent down of type DATA, vector(packetBytes)"
vector 950  Net802154MultiGateway.host[59].wrappedHost.trafficgen  sentPk:vector(packetBytes)  ETV
attr interpolationmode  none
attr source  sentPk
attr title  "packets sent, vector(packetBytes)"
vector 954  Net802154MultiGateway.host[59].wrappedHost.trafficgen  PRR:vector  ETV
attr interpolationmode  none
attr source  count(sinkRcvdPk)/count(sentPk)
attr title  "PRR, vector"
vector 518  Net802154MultiGateway.host[32].wrappedHost.trafficgen  sentPk:vector(packetBytes)  ETV
attr interpolationmode  none
attr source  sentPk
attr title  "packets sent, vector(packetBytes)"
vector 522  Net802154MultiGateway.host[32].wrappedHost.trafficgen  PRR:vector  ETV
attr interpolationmode  none
attr source  count(sinkRcvdPk)/count(sentPk)
attr title  "PRR, vector"
vector 854  Net802154MultiGateway.host[53].wrappedHost.trafficgen  sentPk:vector(packetBytes)  ETV
attr interpolationmode  none
attr source  sentPk
attr title  "packets sent, vector(packetBytes)"
vector 858  Net802154MultiGateway.host[53].wrappedHost.trafficgen  PRR:vector  ETV
attr interpolationmode  none
attr source  count(sinkRcvdPk)/count(sentPk)
attr title  "PRR, vector"
vector 582  Net802154MultiGateway.host[36].wrappedHost.trafficgen  sentPk:vector(packetBytes)  ETV
attr interpolationmode  none
attr source  sentPk
attr title  "packets sent, vector(packetBytes)"
vector 586  Net802154MultiGateway.host[36].wrappedHost.trafficgen  PRR:vector  ETV
attr interpolationmode  none
attr source  count(sinkRcvdPk)/count(sentPk)
attr title  "PRR, vector"
vector 710  Net802154MultiGateway.host[44].wrappedHost.trafficgen  sentPk:vector(packetBytes)  ETV
attr interpolationmode  none
attr source  sentPk
attr title  "packets sent, vector(packetBytes)"
vector 714  Net802154MultiGateway.host[44].wrappedHost.trafficgen  PRR:vector  ETV
attr interpolationmode  none
attr source  count(sinkRcvdPk)/count(sentPk)
attr title  "PRR, vector"
vector 278  Net802154MultiGateway.host[17].wrappedHost.trafficgen  sentPk:vector(packetBytes)  ETV
attr interpolationmode  none
attr source  sentPk
attr title  "packets sent, vector(packetBytes)"
vector 282  Net802154MultiGateway.host[17].wrappedHost.trafficgen  PRR:vector  ETV
attr interpolationmode  none
attr source  count(sinkRcvdPk)/count(sentPk)
attr title  "PRR, vector"
vector 342  Net802154MultiGateway.host[21].wrappedHost.trafficgen  sentPk:vector(packetBytes)  ETV
attr interpolationmode  none
attr source  sentPk
attr title  "packets sent, vector(packetBytes)"
vector 346  Net802154MultiGateway.host[21].wrappedHost.trafficgen  PRR:vector  ETV
attr interpolationmode  none
attr source  count(sinkRcvdPk)/count(sentPk)
attr title  "PRR, vector"
vector 358  Net802154MultiGateway.host[22].wrappedHost.trafficgen  sentPk:vector(packetBytes)  ETV
attr interpolationmode  none
attr source  sentPk
attr title  "packets sent, vector(packetBytes)"
vector 362  Net802154MultiGateway.host[22].wrappedHost.trafficgen  PRR:vector  ETV
attr interpolationmode  none
attr source  count(sinkRcvdPk)/count(sentPk)
attr title  "PRR, vector"
vector 966  Net802154MultiGateway.host[60].wrappedHost.trafficgen  sentPk:vector(packetBytes)  ETV
attr interpolationmode  none
attr source  sentPk
attr title  "packets sent, vector(packetBytes)"
vector 970  Net802154MultiGateway.host[60].wrappedHost.trafficgen  PRR:vector  ETV
attr interpolationmode  none
attr source  count(sinkRcvdPk)/count(sentPk)
attr title  "PRR, vector"
vector 54  Net802154MultiGateway.host[3].wrappedHost.trafficgen  sentPk:vector(packetBytes)  ETV
attr interpolationmode  none
attr source  sentPk
attr title  "packets sent, vector(packetBytes)"
vector 58  Net802154MultiGateway.host[3].wrappedHost.trafficgen  PRR:vector  ETV
attr interpolationmode  none
attr source  count(sinkRcvdPk)/count(sentPk)
attr title  "PRR, vector"
vector 774  Net802154MultiGateway.host[48].wrappedHost.trafficgen  sentPk:vector(packetBytes)  ETV
attr interpolationmode  none
attr source  sentPk
attr title  "packets sent, vector(packetBytes)"
vector 778  Net802154MultiGateway.host[48].wrappedHost.trafficgen  PRR:vector  ETV
attr interpolationmode  none
attr source  count(sinkRcvdPk)/count(sentPk)
attr title  "PRR, vector"
vector 630  Net802154MultiGateway.host[39].wrappedHost.trafficgen  sentPk:vector(packetBytes)  ETV
attr interpolationmode  none
attr source  sentPk
attr title  "packets sent, vector(packetBytes)"
vector 634  Net802154MultiGateway.host[39].wrappedHost.trafficgen  PRR:vector  ETV
attr interpolationmode  none
attr source  count(sinkRcvdPk)/count(sentPk)
attr title  "PRR, vector"
vector 280  Net802154MultiGateway.host[17].wrappedHost.trafficgen  sinkRcvdPk:vector(packetBytes)  ETV
attr interpolationmode  none
attr source  sinkRcvdPk
attr title  "own packets received by sink, vector(packetBytes)"
vector 5  Net802154MultiGateway.host[0].wrappedHost.trafficgen  rcvdPk:vector(packetBytes)  ETV
attr interpolationmode  none
attr source  rcvdPk
attr title  "packets received, vector(packetBytes)"
vector 7  Net802154MultiGateway.host[0].wrappedHost.trafficgen  endToEndDelay:vector  ETV
attr interpolationmode  none
attr source  messageAge(rcvdPk)
attr title  "end-to-end delay, vector"
attr unit  s
vector 534  Net802154MultiGateway.host[33].wrappedHost.trafficgen  sentPk:vector(packetBytes)  ETV
attr interpolationmode  none
attr source  sentPk
attr title  "packets sent, vector(packetBytes)"
vector 538  Net802154MultiGateway.host[33].wrappedHost.trafficgen  PRR:vector  ETV
attr interpolationmode  none
attr source  count(sinkRcvdPk)/count(sentPk)
attr title  "PRR, vector"
vector 56  Net802154MultiGateway.host[3].wrappedHost.trafficgen  sinkRcvdPk:vector(packetBytes)  ETV
attr interpolationmode  none
attr source  sinkRcvdPk
attr title  "own packets received by sink, vector(packetBytes)"
vector 918  Net802154MultiGateway.host[57].wrappedHost.trafficgen  sentPk:vector(packetBytes)  ETV
attr interpolationmode  none
attr source  sentPk
attr title  "packets sent, vector(packetBytes)"
vector 922  Net802154MultiGateway.host[57].wrappedHost.trafficgen  PRR:vector  ETV
attr interpolationmode  none
attr source  count(sinkRcvdPk)/count(sentPk)
attr title  "PRR, vector"
vector 486  Net802154MultiGateway.host[30].wrappedHost.trafficgen  sentPk:vector(packetBytes)  ETV
attr interpolationmode  none
attr source  sentPk
attr title  "packets sent, vector(packetBytes)"
vector 490  Net802154MultiGateway.host[30].wrappedHost.trafficgen  PRR:vector  ETV
attr interpolationmode  none
attr source  count(sinkRcvdPk)/count(sentPk)
attr title  "PRR, vector"
vector 360  Net802154MultiGateway.host[22].wrappedHost.trafficgen  sinkRcvdPk:vector(packetBytes)  ETV
attr interpolationmode  none
attr source  sinkRcvdPk
attr title  "own packets received by sink, vector(packetBytes)"
vector 326  Net802154MultiGateway.host[20].wrappedHost.trafficgen  sentPk:vector(packetBytes)  ETV
attr interpolationmode  none
attr source  sentPk
attr title  "packets sent, vector(packetBytes)"
vector 330  Net802154MultiGateway.host[20].wrappedHost.trafficgen  PRR:vector  ETV
attr interpolationmode  none
attr source  count(sinkRcvdPk)/count(sentPk)
attr title  "PRR, vector"
vector 614  Net802154MultiGateway.host[38].wrappedHost.trafficgen  sentPk:vector(packetBytes)  ETV
attr interpolationmode  none
attr source  sentPk
attr title  "packets sent, vector(packetBytes)"
vector 618  Net802154MultiGateway.host[38].wrappedHost.trafficgen  PRR:vector  ETV
attr interpolationmode  none
attr source  count(sinkRcvdPk)/count(sentPk)
attr title  "PRR, vector"
vector 952  Net802154MultiGateway.host[59].wrappedHost.trafficgen  sinkRcvdPk:vector(packetBytes)  ETV
attr interpolationmode  none
attr source  sinkRcvdPk
attr title  "own packets received by sink, vector(packetBytes)"
vector 536  Net802154MultiGateway.host[33].wrappedHost.trafficgen  sinkRcvdPk:vector(packetBytes)  ETV
attr interpolationmode  none
attr source  sinkRcvdPk
attr title  "own packets received by sink, vector(packetBytes)"
vector 310  Net802154MultiGateway.host[19].wrappedHost.trafficgen  sentPk:vector(packetBytes)  ETV
attr interpolationmode  none
attr source  sentPk
attr title  "packets sent, vector(packetBytes)"
vector 314  Net802154MultiGateway.host[19].wrappedHost.trafficgen  PRR:vector  ETV
attr interpolationmode  none
attr source  count(sinkRcvdPk)/count(sentPk)
attr title  "PRR, vector"
vector 344  Net802154MultiGateway.host[21].wrappedHost.trafficgen  sinkRcvdPk:vector(packetBytes)  ETV
attr interpolationmode  none
attr source  sinkRcvdPk
attr title  "own packets received by sink, vector(packetBytes)"
vector 776  Net802154MultiGateway.host[48].wrappedHost.trafficgen  sinkRcvdPk:vector(packetBytes)  ETV
attr interpolationmode  none
attr source  sinkRcvdPk
attr title  "own packets received by sink, vector(packetBytes)"
vector 584  Net802154MultiGateway.host[36].wrappedHost.trafficgen  sinkRcvdPk:vector(packetBytes)  ETV
attr interpolationmode  none
attr source  sinkRcvdPk
attr title  "own packets received by sink, vector(packetBytes)"
vector 520  Net802154MultiGateway.host[32].wrappedHost.trafficgen  sinkRcvdPk:vector(packetBytes)  ETV
attr interpolationmode  none
attr source  sinkRcvdPk
attr title  "own packets received by sink, vector(packetBytes)"
vector 726  Net802154MultiGateway.host[45].wrappedHost.trafficgen  sentPk:vector(packetBytes)  ETV
attr interpolationmode  none
attr source  sentPk
attr title  "packets sent, vector(packetBytes)"
vector 730  Net802154MultiGateway.host[45].wrappedHost.trafficgen  PRR:vector  ETV
attr interpolationmode  none
attr source  count(sinkRcvdPk)/count(sentPk)
attr title  "PRR, vector"
vector 166  Net802154MultiGateway.host[10].wrappedHost.trafficgen  sentPk:vector(packetBytes)  ETV
attr interpolationmode  none
attr source  sentPk
attr title  "packets sent, vector(packetBytes)"
vector 170  Net802154MultiGateway.host[10].wrappedHost.trafficgen  PRR:vector  ETV
attr interpolationmode  none
attr source  count(sinkRcvdPk)/count(sentPk)
attr title  "PRR, vector"
vector 328  Net802154MultiGateway.host[20].wrappedHost.trafficgen  sinkRcvdPk:vector(packetBytes)  ETV
attr interpolationmode  none
attr source  sinkRcvdPk
attr title  "own packets received by sink, vector(packetBytes)"
vector 856  Net802154MultiGateway.host[53].wrappedHost.trafficgen  sinkRcvdPk:vector(packetBytes)  ETV
attr interpolationmode  none
attr source  sinkRcvdPk
attr title  "own packets received by sink, vector(packetBytes)"
vector 616  Net802154MultiGateway.host[38].wrappedHost.trafficgen  sinkRcvdPk:vector(packetBytes)  ETV
attr interpolationmode  none
attr source  sinkRcvdPk
attr title  "own packets received by sink, vector(packetBytes)"
vector 168  Net802154MultiGateway.host[10].wrappedHost.trafficgen  sinkRcvdPk:vector(packetBytes)  ETV
attr interpolationmode  none
attr source  sinkRcvdPk
attr title  "own packets received by sink, vector(packetBytes)"
vector 790  Net802154MultiGateway.host[49].wrappedHost.trafficgen  sentPk:vector(packetBytes)  ETV
attr interpolationmode  none
attr source  sentPk
attr title  "packets sent, vector(packetBytes)"
vector 794  Net802154MultiGateway.host[49].wrappedHost.trafficgen  PRR:vector  ETV
attr interpolationmode  none
attr source  count(sinkRcvdPk)/count(sentPk)
attr title  "PRR, vector"
vector 312  Net802154MultiGateway.host[19].wrappedHost.trafficgen  sinkRcvdPk:vector(packetBytes)  ETV
attr interpolationmode  none
attr source  sinkRcvdPk
attr title  "own packets received by sink, vector(packetBytes)"
vector 198  Net802154MultiGateway.host[12].wrappedHost.trafficgen  sentPk:vector(packetBytes)  ETV
attr interpolationmode  none
attr source  sentPk
attr title  "packets sent, vector(packetBytes)"
vector 202  Net802154MultiGateway.host[12].wrappedHost.trafficgen  PRR:vector  ETV
attr interpolationmode  none
attr source  count(sinkRcvdPk)/count(sentPk)
attr title  "PRR, vector"
vector 488  Net802154MultiGateway.host[30].wrappedHost.trafficgen  sinkRcvdPk:vector(packetBytes)  ETV
attr interpolationmode  none
attr source  sinkRcvdPk
attr title  "own packets received by sink, vector(packetBytes)"
vector 920  Net802154MultiGateway.host[57].wrappedHost.trafficgen  sinkRcvdPk:vector(packetBytes)  ETV
attr interpolationmode  none
attr source  sinkRcvdPk
attr title  "own packets received by sink, vector(packetBytes)"
vector 728  Net802154MultiGateway.host[45].wrappedHost.trafficgen  sinkRcvdPk:vector(packetBytes)  ETV
attr interpolationmode  none
attr source  sinkRcvdPk
attr title  "own packets received by sink, vector(packetBytes)"
vector 294  Net802154MultiGateway.host[18].wrappedHost.trafficgen  sentPk:vector(packetBytes)  ETV
attr interpolationmode  none
attr source  sentPk
attr title  "packets sent, vector(packetBytes)"
vector 298  Net802154MultiGateway.host[18].wrappedHost.trafficgen  PRR:vector  ETV
attr interpolationmode  none
attr source  count(sinkRcvdPk)/count(sentPk)
attr title  "PRR, vector"
vector 38  Net802154MultiGateway.host[2].wrappedHost.trafficgen  sentPk:vector(packetBytes)  ETV
attr interpolationmode  none
attr source  sentPk
attr title  "packets sent, vector(packetBytes)"
vector 42  Net802154MultiGateway.host[2].wrappedHost.trafficgen  PRR:vector  ETV
attr interpolationmode  none
attr source  count(sinkRcvdPk)/count(sentPk)
attr title  "PRR, vector"
vector 470  Net802154MultiGateway.host[29].wrappedHost.trafficgen  sentPk:vector(packetBytes)  ETV
attr interpolationmode  none
attr source  sentPk
attr title  "packets sent, vector(packetBytes)"
vector 474  Net802154MultiGateway.host[29].wrappedHost.trafficgen  PRR:vector  ETV
attr interpolationmode  none
attr source  count(sinkRcvdPk)/count(sentPk)
attr title  "PRR, vector"
vector 806  Net802154MultiGateway.host[50].wrappedHost.trafficgen  sentPk:vector(packetBytes)  ETV
attr interpolationmode  none
attr source  sentPk
attr title  "packets sent, vector(packetBytes)"
vector 810  Net802154MultiGateway.host[50].wrappedHost.trafficgen  PRR:vector  ETV
attr interpolationmode  none
attr source  count(sinkRcvdPk)/count(sentPk)
attr title  "PRR, vector"
vector 40  Net802154MultiGateway.host[2].wrappedHost.trafficgen  sinkRcvdPk:vector(packetBytes)  ETV
attr interpolationmode  none
attr source  sinkRcvdPk
attr title  "own packets received by sink, vector(packetBytes)"
vector 678  Net802154MultiGateway.host[42].wrappedHost.trafficgen  sentPk:vector(packetBytes)  ETV
attr interpolationmode  none
attr source  sentPk
attr title  "packets sent, vector(packetBytes)"
vector 682  Net802154MultiGateway.host[42].wrappedHost.trafficgen  PRR:vector  ETV
attr interpolationmode  none
attr source  count(sinkRcvdPk)/count(sentPk)
attr title  "PRR, vector"
vector 632  Net802154MultiGateway.host[39].wrappedHost.trafficgen  sinkRcvdPk:vector(packetBytes)  ETV
attr interpolationmode  none
attr source  sinkRcvdPk
attr title  "own packets received by sink, vector(packetBytes)"
vector 454  Net802154MultiGateway.host[28].wrappedHost.trafficgen  sentPk:vector(packetBytes)  ETV
attr interpolationmode  none
attr source  sentPk
attr title  "packets sent, vector(packetBytes)"
vector 458  Net802154MultiGateway.host[28].wrappedHost.trafficgen  PRR:vector  ETV
attr interpolationmode  none
attr source  count(sinkRcvdPk)/count(sentPk)
attr title  "PRR, vector"
vector 550  Net802154MultiGateway.host[34].wrappedHost.trafficgen  sentPk:vector(packetBytes)  ETV
attr interpolationmode  none
attr source  sentPk
attr title  "packets sent, vector(packetBytes)"
vector 554  Net802154MultiGateway.host[34].wrappedHost.trafficgen  PRR:vector  ETV
attr interpolationmode  none
attr source  count(sinkRcvdPk)/count(sentPk)
attr title  "PRR, vector"
vector 86  Net802154MultiGateway.host[5].wrappedHost.trafficgen  sentPk:vector(packetBytes)  ETV
attr interpolationmode  none
attr source  sentPk
attr title  "packets sent, vector(packetBytes)"
vector 90  Net802154MultiGateway.host[5].wrappedHost.trafficgen  PRR:vector  ETV
attr interpolationmode  none
attr source  count(sinkRcvdPk)/count(sentPk)
attr title  "PRR, vector"
vector 296  Net802154MultiGateway.host[18].wrappedHost.trafficgen  sinkRcvdPk:vector(packetBytes)  ETV
attr interpolationmode  none
attr source  sinkRcvdPk
attr title  "own packets received by sink, vector(packetBytes)"
vector 438  Net802154MultiGateway.host[27].wrappedHost.trafficgen  sentPk:vector(packetBytes)  ETV
attr interpolationmode  none
attr source  sentPk
attr title  "packets sent, vector(packetBytes)"
vector 442  Net802154MultiGateway.host[27].wrappedHost.trafficgen  PRR:vector  ETV
attr interpolationmode  none
attr source  count(sinkRcvdPk)/count(sentPk)
attr title  "PRR, vector"
vector 712  Net802154MultiGateway.host[44].wrappedHost.trafficgen  sinkRcvdPk:vector(packetBytes)  ETV
attr interpolationmode  none
attr source  sinkRcvdPk
attr title  "own packets received by sink, vector(packetBytes)"
vector 934  Net802154MultiGateway.host[58].wrappedHost.trafficgen  sentPk:vector(packetBytes)  ETV
attr interpolationmode  none
attr source  sentPk
attr title  "packets sent, vector(packetBytes)"
vector 938  Net802154MultiGateway.host[58].wrappedHost.trafficgen  PRR:vector  ETV
attr interpolationmode  none
attr source  count(sinkRcvdPk)/count(sentPk)
attr title  "PRR, vector"
vector 102  Net802154MultiGateway.host[6].wrappedHost.trafficgen  sentPk:vector(packetBytes)  ETV
attr interpolationmode  none
attr source  sentPk
attr title  "packets sent, vector(packetBytes)"
vector 106  Net802154MultiGateway.host[6].wrappedHost.trafficgen  PRR:vector  ETV
attr interpolationmode  none
attr source  count(sinkRcvdPk)/count(sentPk)
attr title  "PRR, vector"
vector 902  Net802154MultiGateway.host[56].wrappedHost.trafficgen  sentPk:vector(packetBytes)  ETV
attr interpolationmode  none
attr source  sentPk
attr title  "packets sent, vector(packetBytes)"
vector 906  Net802154MultiGateway.host[56].wrappedHost.trafficgen  PRR:vector  ETV
attr interpolationmode  none
attr source  count(sinkRcvdPk)/count(sentPk)
attr title  "PRR, vector"
vector 808  Net802154MultiGateway.host[50].wrappedHost.trafficgen  sinkRcvdPk:vector(packetBytes)  ETV
attr interpolationmode  none
attr source  sinkRcvdPk
attr title  "own packets received by sink, vector(packetBytes)"
vector 104  Net802154MultiGateway.host[6].wrappedHost.trafficgen  sinkRcvdPk:vector(packetBytes)  ETV
attr interpolationmode  none
attr source  sinkRcvdPk
attr title  "own packets received by sink, vector(packetBytes)"
vector 182  Net802154MultiGateway.host[11].wrappedHost.trafficgen  sentPk:vector(packetBytes)  ETV
attr interpolationmode  none
attr source  sentPk
attr title  "packets sent, vector(packetBytes)"
vector 186  Net802154MultiGateway.host[11].wrappedHost.trafficgen  PRR:vector  ETV
attr interpolationmode  none
attr source  count(sinkRcvdPk)/count(sentPk)
attr title  "PRR, vector"
vector 88  Net802154MultiGateway.host[5].wrappedHost.trafficgen  sinkRcvdPk:vector(packetBytes)  ETV
attr interpolationmode  none
attr source  sinkRcvdPk
attr title  "own packets received by sink, vector(packetBytes)"
vector 566  Net802154MultiGateway.host[35].wrappedHost.trafficgen  sentPk:vector(packetBytes)  ETV
attr interpolationmode  none
attr source  sentPk
attr title  "packets sent, vector(packetBytes)"
vector 570  Net802154MultiGateway.host[35].wrappedHost.trafficgen  PRR:vector  ETV
attr interpolationmode  none
attr source  count(sinkRcvdPk)/count(sentPk)
attr title  "PRR, vector"
vector 870  Net802154MultiGateway.host[54].wrappedHost.trafficgen  sentPk:vector(packetBytes)  ETV
attr interpolationmode  none
attr source  sentPk
attr title  "packets sent, vector(packetBytes)"
vector 874  Net802154MultiGateway.host[54].wrappedHost.trafficgen  PRR:vector  ETV
attr interpolationmode  none
attr source  count(sinkRcvdPk)/count(sentPk)
attr title  "PRR, vector"
vector 502  Net802154MultiGateway.host[31].wrappedHost.trafficgen  sentPk:vector(packetBytes)  ETV
attr interpolationmode  none
attr source  sentPk
attr title  "packets sent, vector(packetBytes)"
vector 506  Net802154MultiGateway.host[31].wrappedHost.trafficgen  PRR:vector  ETV
attr interpolationmode  none
attr source  count(sinkRcvdPk)/count(sentPk)
attr title  "PRR, vector"
vector 680  Net802154MultiGateway.host[42].wrappedHost.trafficgen  sinkRcvdPk:vector(packetBytes)  ETV
attr interpolationmode  none
attr source  sinkRcvdPk
attr title  "own packets received by sink, vector(packetBytes)"
vector 646  Net802154MultiGateway.host[40].wrappedHost.trafficgen  sentPk:vector(packetBytes)  ETV
attr interpolationmode  none
attr source  sentPk
attr title  "packets sent, vector(packetBytes)"
vector 650  Net802154MultiGateway.host[40].wrappedHost.trafficgen  PRR:vector  ETV
attr interpolationmode  none
attr source  count(sinkRcvdPk)/count(sentPk)
attr title  "PRR, vector"
vector 552  Net802154MultiGateway.host[34].wrappedHost.trafficgen  sinkRcvdPk:vector(packetBytes)  ETV
attr interpolationmode  none
attr source  sinkRcvdPk
attr title  "own packets received by sink, vector(packetBytes)"
vector 200  Net802154MultiGateway.host[12].wrappedHost.trafficgen  sinkRcvdPk:vector(packetBytes)  ETV
attr interpolationmode  none
attr source  sinkRcvdPk
attr title  "own packets received by sink, vector(packetBytes)"
vector 568  Net802154MultiGateway.host[35].wrappedHost.trafficgen  sinkRcvdPk:vector(packetBytes)  ETV
attr interpolationmode  none
attr source  sinkRcvdPk
attr title  "own packets received by sink, vector(packetBytes)"
vector 440  Net802154MultiGateway.host[27].wrappedHost.trafficgen  sinkRcvdPk:vector(packetBytes)  ETV
attr interpolationmode  none
attr source  sinkRcvdPk
attr title  "own packets received by sink, vector(packetBytes)"
vector 968  Net802154MultiGateway.host[60].wrappedHost.trafficgen  sinkRcvdPk:vector(packetBytes)  ETV
attr interpolationmode  none
attr source  sinkRcvdPk
attr title  "own packets received by sink, vector(packetBytes)"
vector 904  Net802154MultiGateway.host[56].wrappedHost.trafficgen  sinkRcvdPk:vector(packetBytes)  ETV
attr interpolationmode  none
attr source  sinkRcvdPk
attr title  "own packets received by sink, vector(packetBytes)"
vector 456  Net802154MultiGateway.host[28].wrappedHost.trafficgen  sinkRcvdPk:vector(packetBytes)  ETV
attr interpolationmode  none
attr source  sinkRcvdPk
attr title  "own packets received by sink, vector(packetBytes)"
vector 742  Net802154MultiGateway.host[46].wrappedHost.trafficgen  sentPk:vector(packetBytes)  ETV
attr interpolationmode  none
attr source  sentPk
attr title  "packets sent, vector(packetBytes)"
vector 746  Net802154MultiGateway.host[46].wrappedHost.trafficgen  PRR:vector  ETV
attr interpolationmode  none
attr source  count(sinkRcvdPk)/count(sentPk)
attr title  "PRR, vector"
vector 22  Net802154MultiGateway.host[1].wrappedHost.trafficgen  sentPk:vector(packetBytes)  ETV
attr interpolationmode  none
attr source  sentPk
attr title  "packets sent, vector(packetBytes)"
vector 26  Net802154MultiGateway.host[1].wrappedHost.trafficgen  PRR:vector  ETV
attr interpolationmode  none
attr source  count(sinkRcvdPk)/count(sentPk)
attr title  "PRR, vector"
vector 24  Net802154MultiGateway.host[1].wrappedHost.trafficgen  sinkRcvdPk:vector(packetBytes)  ETV
attr interpolationmode  none
attr source  sinkRcvdPk
attr title  "own packets received by sink, vector(packetBytes)"
vector 472  Net802154MultiGateway.host[29].wrappedHost.trafficgen  sinkRcvdPk:vector(packetBytes)  ETV
attr interpolationmode  none
attr source  sinkRcvdPk
attr title  "own packets received by sink, vector(packetBytes)"
vector 792  Net802154MultiGateway.host[49].wrappedHost.trafficgen  sinkRcvdPk:vector(packetBytes)  ETV
attr interpolationmode  none
attr source  sinkRcvdPk
attr title  "own packets received by sink, vector(packetBytes)"
vector 504  Net802154MultiGateway.host[31].wrappedHost.trafficgen  sinkRcvdPk:vector(packetBytes)  ETV
attr interpolationmode  none
attr source  sinkRcvdPk
attr title  "own packets received by sink, vector(packetBytes)"
vector 134  Net802154MultiGateway.host[8].wrappedHost.trafficgen  sentPk:vector(packetBytes)  ETV
attr interpolationmode  none
attr source  sentPk
attr title  "packets sent, vector(packetBytes)"
vector 138  Net802154MultiGateway.host[8].wrappedHost.trafficgen  PRR:vector  ETV
attr interpolationmode  none
attr source  count(sinkRcvdPk)/count(sentPk)
attr title  "PRR, vector"
vector 214  Net802154MultiGateway.host[13].wrappedHost.trafficgen  sentPk:vector(packetBytes)  ETV
attr interpolationmode  none
attr source  sentPk
attr title  "packets sent, vector(packetBytes)"
vector 218  Net802154MultiGateway.host[13].wrappedHost.trafficgen  PRR:vector  ETV
attr interpolationmode  none
attr source  count(sinkRcvdPk)/count(sentPk)
attr title  "PRR, vector"
vector 390  Net802154MultiGateway.host[24].wrappedHost.trafficgen  sentPk:vector(packetBytes)  ETV
attr interpolationmode  none
attr source  sentPk
attr title  "packets sent, vector(packetBytes)"
vector 394  Net802154MultiGateway.host[24].wrappedHost.trafficgen  PRR:vector  ETV
attr interpolationmode  none
attr source  count(sinkRcvdPk)/count(sentPk)
attr title  "PRR, vector"
vector 184  Net802154MultiGateway.host[11].wrappedHost.trafficgen  sinkRcvdPk:vector(packetBytes)  ETV
attr interpolationmode  none
attr source  sinkRcvdPk
attr title  "own packets received by sink, vector(packetBytes)"
vector 936  Net802154MultiGateway.host[58].wrappedHost.trafficgen  sinkRcvdPk:vector(packetBytes)  ETV
attr interpolationmode  none
attr source  sinkRcvdPk
attr title  "own packets received by sink, vector(packetBytes)"
vector 982  Net802154MultiGateway.host[61].wrappedHost.trafficgen  sentPk:vector(packetBytes)  ETV
attr interpolationmode  none
attr source  sentPk
attr title  "packets sent, vector(packetBytes)"
vector 986  Net802154MultiGateway.host[61].wrappedHost.trafficgen  PRR:vector  ETV
attr interpolationmode  none
attr source  count(sinkRcvdPk)/count(sentPk)
attr title  "PRR, vector"
vector 662  Net802154MultiGateway.host[41].wrappedHost.trafficgen  sentPk:vector(packetBytes)  ETV
attr interpolationmode  none
attr source  sentPk
attr title  "packets sent, vector(packetBytes)"
vector 666  Net802154MultiGateway.host[41].wrappedHost.trafficgen  PRR:vector  ETV
attr interpolationmode  none
attr source  count(sinkRcvdPk)/count(sentPk)
attr title  "PRR, vector"
vector 118  Net802154MultiGateway.host[7].wrappedHost.trafficgen  sentPk:vector(packetBytes)  ETV
attr interpolationmode  none
attr source  sentPk
attr title  "packets sent, vector(packetBytes)"
vector 122  Net802154MultiGateway.host[7].wrappedHost.trafficgen  PRR:vector  ETV
attr interpolationmode  none
attr source  count(sinkRcvdPk)/count(sentPk)
attr title  "PRR, vector"
vector 216  Net802154MultiGateway.host[13].wrappedHost.trafficgen  sinkRcvdPk:vector(packetBytes)  ETV
attr interpolationmode  none
attr source  sinkRcvdPk
attr title  "own packets received by sink, vector(packetBytes)"
vector 872  Net802154MultiGateway.host[54].wrappedHost.trafficgen  sinkRcvdPk:vector(packetBytes)  ETV
attr interpolationmode  none
attr source  sinkRcvdPk
attr title  "own packets received by sink, vector(packetBytes)"
vector 406  Net802154MultiGateway.host[25].wrappedHost.trafficgen  sentPk:vector(packetBytes)  ETV
attr interpolationmode  none
attr source  sentPk
attr title  "packets sent, vector(packetBytes)"
vector 410  Net802154MultiGateway.host[25].wrappedHost.trafficgen  PRR:vector  ETV
attr interpolationmode  none
attr source  count(sinkRcvdPk)/count(sentPk)
attr title  "PRR, vector"
vector 136  Net802154MultiGateway.host[8].wrappedHost.trafficgen  sinkRcvdPk:vector(packetBytes)  ETV
attr interpolationmode  none
attr source  sinkRcvdPk
attr title  "own packets received by sink, vector(packetBytes)"
vector 246  Net802154MultiGateway.host[15].wrappedHost.trafficgen  sentPk:vector(packetBytes)  ETV
attr interpolationmode  none
attr source  sentPk
attr title  "packets sent, vector(packetBytes)"
vector 250  Net802154MultiGateway.host[15].wrappedHost.trafficgen  PRR:vector  ETV
attr interpolationmode  none
attr source  count(sinkRcvdPk)/count(sentPk)
attr title  "PRR, vector"
vector 648  Net802154MultiGateway.host[40].wrappedHost.trafficgen  sinkRcvdPk:vector(packetBytes)  ETV
attr interpolationmode  none
attr source  sinkRcvdPk
attr title  "own packets received by sink, vector(packetBytes)"
vector 120  Net802154MultiGateway.host[7].wrappedHost.trafficgen  sinkRcvdPk:vector(packetBytes)  ETV
attr interpolationmode  none
attr source  sinkRcvdPk
attr title  "own packets received by sink, vector(packetBytes)"
vector 744  Net802154MultiGateway.host[46].wrappedHost.trafficgen  sinkRcvdPk:vector(packetBytes)  ETV
attr interpolationmode  none
attr source  sinkRcvdPk
attr title  "own packets received by sink, vector(packetBytes)"
vector 984  Net802154MultiGateway.host[61].wrappedHost.trafficgen  sinkRcvdPk:vector(packetBytes)  ETV
attr interpolationmode  none
attr source  sinkRcvdPk
attr title  "own packets received by sink, vector(packetBytes)"
vector 248  Net802154MultiGateway.host[15].wrappedHost.trafficgen  sinkRcvdPk:vector(packetBytes)  ETV
attr interpolationmode  none
attr source  sinkRcvdPk
attr title  "own packets received by sink, vector(packetBytes)"
vector 664  Net802154MultiGateway.host[41].wrappedHost.trafficgen  sinkRcvdPk:vector(packetBytes)  ETV
attr interpolationmode  none
attr source  sinkRcvdPk
attr title  "own packets received by sink, vector(packetBytes)"
vector 408  Net802154MultiGateway.host[25].wrappedHost.trafficgen  sinkRcvdPk:vector(packetBytes)  ETV
attr interpolationmode  none
attr source  sinkRcvdPk
attr title  "own packets received by sink, vector(packetBytes)"
vector 838  Net802154MultiGateway.host[52].wrappedHost.trafficgen  sentPk:vector(packetBytes)  ETV
attr interpolationmode  none
attr source  sentPk
attr title  "packets sent, vector(packetBytes)"
vector 842  Net802154MultiGateway.host[52].wrappedHost.trafficgen  PRR:vector  ETV
attr interpolationmode  none
attr source  count(sinkRcvdPk)/count(sentPk)
attr title  "PRR, vector"
vector 392  Net802154MultiGateway.host[24].wrappedHost.trafficgen  sinkRcvdPk:vector(packetBytes)  ETV
attr interpolationmode  none
attr source  sinkRcvdPk
attr title  "own packets received by sink, vector(packetBytes)"
vector 374  Net802154MultiGateway.host[23].wrappedHost.trafficgen  sentPk:vector(packetBytes)  ETV
attr interpolationmode  none
attr source  sentPk
attr title  "packets sent, vector(packetBytes)"
vector 378  Net802154MultiGateway.host[23].wrappedHost.trafficgen  PRR:vector  ETV
attr interpolationmode  none
attr source  count(sinkRcvdPk)/count(sentPk)
attr title  "PRR, vector"
vector 598  Net802154MultiGateway.host[37].wrappedHost.trafficgen  sentPk:vector(packetBytes)  ETV
attr interpolationmode  none
attr source  sentPk
attr title  "packets sent, vector(packetBytes)"
vector 602  Net802154MultiGateway.host[37].wrappedHost.trafficgen  PRR:vector  ETV
attr interpolationmode  none
attr source  count(sinkRcvdPk)/count(sentPk)
attr title  "PRR, vector"
vector 840  Net802154MultiGateway.host[52].wrappedHost.trafficgen  sinkRcvdPk:vector(packetBytes)  ETV
attr interpolationmode  none
attr source  sinkRcvdPk
attr title  "own packets received by sink, vector(packetBytes)"
vector 600  Net802154MultiGateway.host[37].wrappedHost.trafficgen  sinkRcvdPk:vector(packetBytes)  ETV
attr interpolationmode  none
attr source  sinkRcvdPk
attr title  "own packets received by sink, vector(packetBytes)"
vector 822  Net802154MultiGateway.host[51].wrappedHost.trafficgen  sentPk:vector(packetBytes)  ETV
attr interpolationmode  none
attr source  sentPk
attr title  "packets sent, vector(packetBytes)"
vector 826  Net802154MultiGateway.host[51].wrappedHost.trafficgen  PRR:vector  ETV
attr interpolationmode  none
attr source  count(sinkRcvdPk)/count(sentPk)
attr title  "PRR, vector"
vector 886  Net802154MultiGateway.host[55].wrappedHost.trafficgen  sentPk:vector(packetBytes)  ETV
attr interpolationmode  none
attr source  sentPk
attr title  "packets sent, vector(packetBytes)"
vector 890  Net802154MultiGateway.host[55].wrappedHost.trafficgen  PRR:vector  ETV
attr interpolationmode  none
attr source  count(sinkRcvdPk)/count(sentPk)
attr title  "PRR, vector"
vector 376  Net802154MultiGateway.host[23].wrappedHost.trafficgen  sinkRcvdPk:vector(packetBytes)  ETV
attr interpolationmode  none
attr source  sinkRcvdPk
attr title  "own packets received by sink, vector(packetBytes)"
vector 70  Net802154MultiGateway.host[4].wrappedHost.trafficgen  sentPk:vector(packetBytes)  ETV
attr interpolationmode  none
attr source  sentPk
attr title  "packets sent, vector(packetBytes)"
vector 74  Net802154MultiGateway.host[4].wrappedHost.trafficgen  PRR:vector  ETV
attr interpolationmode  none
attr source  count(sinkRcvdPk)/count(sentPk)
attr title  "PRR, vector"
vector 72  Net802154MultiGateway.host[4].wrappedHost.trafficgen  sinkRcvdPk:vector(packetBytes)  ETV
attr interpolationmode  none
attr source  sinkRcvdPk
attr title  "own packets received by sink, vector(packetBytes)"
vector 150  Net802154MultiGateway.host[9].wrappedHost.trafficgen  sentPk:vector(packetBytes)  ETV
attr interpolationmode  none
attr source  sentPk
attr title  "packets sent, vector(packetBytes)"
vector 154  Net802154MultiGateway.host[9].wrappedHost.trafficgen  PRR:vector  ETV
attr interpolationmode  none
attr source  count(sinkRcvdPk)/count(sentPk)
attr title  "PRR, vector"
vector 758  Net802154MultiGateway.host[47].wrappedHost.trafficgen  sentPk:vector(packetBytes)  ETV
attr interpolationmode  none
attr source  sentPk
attr title  "packets sent, vector(packetBytes)"
vector 762  Net802154MultiGateway.host[47].wrappedHost.trafficgen  PRR:vector  ETV
attr interpolationmode  none
attr source  count(sinkRcvdPk)/count(sentPk)
attr title  "PRR, vector"
vector 152  Net802154MultiGateway.host[9].wrappedHost.trafficgen  sinkRcvdPk:vector(packetBytes)  ETV
attr interpolationmode  none
attr source  sinkRcvdPk
attr title  "own packets received by sink, vector(packetBytes)"
vector 760  Net802154MultiGateway.host[47].wrappedHost.trafficgen  sinkRcvdPk:vector(packetBytes)  ETV
attr interpolationmode  none
attr source  sinkRcvdPk
attr title  "own packets received by sink, vector(packetBytes)"
[...]
344	1482780 3200 3360761 7057331 162.028992333564 334.076352333564 100 76 76 7600 577600
345	1485980 3693 16142 8744708 1 412.642173017848 118 76 76 8968 681568
346	1489673 8216 3344922 7057331 161.263341527989 334.076352333564 200 0.5 1 -nan -nan
350	1497889 10332 386163 8753942 22.9248 413.07648 405 120 120 48600 5832000
351	1508221 1024 336812 8744836 20.338544 412.647168 40 29 29 1160 33640
358	1509245 3186 3346417 7340574 161.329674927882 347.234601056146 100 76 76 7600 577600
360	1512431 3200 3355696 7353363 161.783232333564 347.823552333564 100 76 76 7600 577600
361	1515631 3208 16143 8756836 1 413.204205962197 104 76 76 7904 600704
362	1518839 8111 3346417 7353363 161.329674927882 347.823552333564 200 0.5 1 -nan -nan
366	1526950 11029 438149 8757540 25.4208 413.23008 433 120 120 51960 6235200
367	1537979 1015 376025 8750516 22.401776 412.892352 40 29 29 1160 33640
374	1538994 3183 3432069 8262436 165.366058018269 390.167256703254 100 76 76 7600 577600
376	1542177 3200 3444205 8265725 165.961152333564 390.340032333564 100 76 76 7600 577600
377	1545377 2526 16144 8745336 1 412.674522416512 82 76 76 6232 473632
378	1547903 7920 3432069 8265725 165.366058018269 390.340032333564 200 0.5 1 -nan -nan
382	1555823 14025 405821 8756920 23.9232 413.20704 549 120 120 65880 7905600
383	1569848 1018 341506 8708732 20.578672 410.92184 40 29 29 1160 33640
390	1570866 3192 3397920 7633215 163.784400829033 360.668479308943 100 76 76 7600 577600
392	1574058 3200 3421177 7656287 164.862912333564 361.747392333564 100 76 76 7600 577600
393	1577258 3029 16145 8756018 1 413.169158359034 98 76 76 7448 566048
394	1580287 8012 3397920 7656287 163.784400829033 361.747392333564 200 0.5 1 -nan -nan
398	1588299 10139 418333 8611297 24.52224 406.44864 399 120 120 47880 5745600
399	1598438 1020 353160 8717140 21.1964 411.340896 40 29 29 1160 33640
406	1599458 3183 3408155 7764689 164.250044562795 366.692491218919 100 76 76 7600 577600
408	1602641 3200 3418878 7784967 164.747712333564 367.645632333564 100 76 76 7600 577600
409	1605841 3137 16146 8750809 1 412.912480838401 102 76 76 7752 589152
410	1608978 7938 3408155 7784967 164.250044562795 367.645632333564 200 0.33333333333333 1 -nan -nan
414	1616916 14803 355980 8752155 21.32736 412.97664 582 120 120 69840 8380800
415	1631719 996 377934 8575590 22.496384 404.832608 39 29 29 1131 32799
422	1632715 3191 3512698 7945623 169.107228538198 375.234714978789 100 76 76 7600 577600
424	1635906 3200 3517213 7961521 169.317312333564 375.963072333564 100 76 76 7600 577600
425	1639106 2958 16147 8709288 1 410.948028681411 95 76 76 7220 548720
426	1642064 7875 3512698 7961521 169.107228538198 375.963072333564 200 0.5 1 -nan -nan
430	1649939 9198 465709 8730670 26.74176 411.97056 360 120 120 43200 5184000
431	1659137 993 601979 8726828 32.621744 411.782 39 29 29 1131 32799
438	1660130 3188 3379030 7773480 162.912111856383 367.113454069781 100 76 76 7600 577600
440	1663318 3200 3392048 7781555 163.511232333564 367.492032333564 100 76 76 7600 577600
441	1666518 3073 16148 8750020 1 412.871317143444 100 76 76 7600 577600
442	1669591 7960 3379030 7781555 162.912111856383 367.492032333564 200 0.33333333333333 1 -nan -nan
446	1677551 9590 390876 8738483 23.17056 412.34688 377 120 120 45240 5428800
447	1687141 1020 360156 8700590 21.557968 410.554608 40 29 29 1160 33640
454	1688161 3187 3377257 7957982 162.819044062475 375.799635830127 100 76 76 7600 577600
456	1691348 3200 3392900 7970669 163.549632333564 376.377792333564 100 76 76 7600 577600
457	1694548 2937 16149 8736785 1 412.268874901067 95 76 76 7220 548720
458	1697485 7843 3377257 7970669 162.819044062475 376.377792333564 200 0.33333333333333 1 -nan -nan
462	1705328 14145 379069 8753991 22.55616 413.07648 555 120 120 66600 7992000
463	1719473 1019 412416 8755254 24.234528 413.134272 40 29 29 1160 33640
470	1720492 3190 3375106 7141670 162.716131883879 338.031810014793 100 76 76 7600 577600
472	1723682 3200 3394927 7152062 163.641792333564 338.530752333564 100 76 76 7600 577600
473	1726882 3886 16150 8682715 1 409.745659195464 125 76 76 9500 722000
474	1730768 7973 3375106 7152062 162.716131883879 338.530752333564 200 0.5 1 -nan -nan
478	1738741 10639 408035 8693158 24.03072 410.24256 418 120 120 50160 6019200
479	1749380 991 419542 8484605 24.584512 400.635456 39 29 29 1131 32799
486	1750371 3184 3354914 7529714 161.74070357838 355.959163963456 100 76 76 7600 577600
488	1753555 3200 3371713 7574602 162.551232333564 358.022592333564 100 76 76 7600 577600
489	1756755 3093 16151 8700583 1 410.549931412679 100 76 76 7600 577600
490	1759848 7961 3354914 7574602 161.74070357838 358.022592333564 200 0.33333333333333 1 -nan -nan
494	1767809 9744 498107 8702451 28.20864 410.64192 382 120 120 45840 5500800
495	1777553 1011 355715 8690355 21.31688 410.106704 40 29 29 1160 33640
502	1778564 3186 3385608 7203448 163.220383667192 340.866842376451 100 76 76 7600 577600
504	1781750 3200 3395489 7214165 163.664832333564 341.341632333564 100 76 76 7600 577600
505	1784950 2974 16152 8634277 1 407.501409996881 96 76 76 7296 554496
506	1787924 7912 3385608 7214165 163.220383667192 341.341632333564 200 0.33333333333333 1 -nan -nan
510	1795836 15115 512150 8756380 28.82304 413.19168 593 120 120 71160 8539200
511	1810951 994 424936 8555797 24.83376 403.918944 39 29 29 1131 32799
518	1811945 3188 3341650 6801280 161.101987681452 321.926120988643 100 76 76 7600 577600
520	1815133 3200 3361605 6806809 162.059712333564 322.172352333564 100 76 76 7600 577600
521	1818333 3666 16153 8714467 1 411.203725198659 118 76 76 8968 681568
522	1821999 7878 3341650 6806809 161.101987681452 322.172352333564 200 0.42857142857143 1 -nan -nan
526	1829877 10190 423609 8730672 24.768 411.97056 400 120 120 48000 5760000
527	1840067 1016 420697 8727537 24.6364 411.820848 40 29 29 1160 33640
534	1841083 3191 3353033 7685721 161.658562801859 363.098938401959 100 76 76 7600 577600
536	1844274 3200 3359309 7705652 161.952192333564 363.959232333564 100 76 76 7600 577600
537	1847474 3296 16154 8753178 1 413.031146687928 106 76 76 8056 612256
538	1850770 7982 3353033 7705652 161.658562801859 363.959232333564 200 0.5 1 -nan -nan
542	1858752 14440 418339 8749207 24.52224 412.8384 567 120 120 68040 8164800
543	1873192 1013 415467 8734449 24.396384 412.155328 40 29 29 1160 33640
550	1874205 3186 3377758 7719125 162.85248558384 364.591725074095 100 76 76 7600 577600
552	1877391 3200 3389438 7727049 163.396032333564 364.942272333564 100 76 76 7600 577600
553	1880591 3200 16155 8669276 1 409.077987493638 103 76 76 7828 594928
554	1883791 8029 3377758 7727049 162.85248558384 364.942272333564 200 0.5 1 -nan -nan
558	1891820 10046 470842 8746143 26.98752 412.70784 394 120 120 47280 5673600
559	1901866 995 548070 8740159 30.38944 412.423344 39 29 29 1131 32799
566	1902861 3189 3384896 8196243 163.183238154055 386.952678152225 100 76 76 7600 577600
568	1906050 3200 3390240 8221332 163.426752333564 388.166592333564 100 76 76 7600 577600
569	1909250 2845 16156 8623073 1 406.981278221477 93 76 76 7068 537168
570	1912095 7777 3384896 8221332 163.183238154055 388.166592333564 200 0.5 1 -nan -nan
574	1919872 9407 390885 8713048 23.17056 411.12576 370 120 120 44400 5328000
575	1929279 969 568657 8542909 31.24032 403.3372 38 29 29 1102 31958
582	1930248 3185 3342574 6635297 161.151171547092 314.212623669812 100 76 76 7600 577600
584	1933433 3200 3361434 6642347 162.052032333564 314.569152333564 100 76 76 7600 577600
585	1936633 3601 16157 8661750 1 408.761018523765 116 76 76 8816 670016
586	1940234 8080 3342574 6642347 161.151171547092 314.569152333564 200 0.25 1 -nan -nan
590	1948314 14094 418351 8728657 24.52224 411.86304 552 120 120 66240 7948800
591	1962408 970 618075 8559317 33.333648 404.081104 38 29 29 1102 31958
598	1963378 3190 3433094 7344848 165.412092237504 347.434698769691 100 76 76 7600 577600
600	1966568 3200 3440202 7362144 165.753792333564 348.230592333564 100 76 76 7600 577600
601	1969768 3760 16158 8733661 1 412.117126710414 121 76 76 9196 698896
602	1973528 8030 3433094 7362144 165.412092237504 348.230592333564 200 0.5 1 -nan -nan
606	1981558 5239 514690 8748695 28.94592 412.82304 206 120 120 24720 2966400
607	1986797 992 597967 8698532 32.466528 410.470592 39 29 29 1131 32799
614	1987789 3185 3357232 7913541 161.861729545264 373.748332741135 100 76 76 7600 577600
616	1990974 3200 3367027 7919128 162.313152333564 374.004672333564 100 76 76 7600 577600
617	1994174 3258 16159 8749882 1 412.867765921125 105 76 76 7980 606480
618	1997432 7846 3357232 7919128 161.861729545264 374.004672333564 200 0.5 1 -nan -nan
622	2005278 4732 870146 8756335 45.0432 413.19168 185 120 120 22200 2664000
623	2010010 970 861621 8701003 44.63976 410.576832 38 29 29 1102 31958
630	2010980 3191 3350384 7506700 161.529027324423 354.87504369796 100 76 76 7600 577600
632	2014171 3200 3376880 7524348 162.804672333564 355.710912333564 100 76 76 7600 577600
633	2017371 3572 16160 8689474 1 410.0565829795 115 76 76 8740 664240
634	2020943 8030 3350384 7524348 161.529027324423 355.710912333564 200 0.5 1 -nan -nan
638	2028973 5083 648132 8701607 34.5984 410.6112 199 120 120 23880 2865600
639	2034056 977 643825 8479236 34.431408 400.393792 38 29 29 1102 31958
646	2035033 3192 3387582 7280726 163.308844472947 344.407316614063 100 76 76 7600 577600
648	2038225 3200 3413159 7295873 164.486592333564 345.120192333564 100 76 76 7600 577600
649	2041425 3440 16161 8752378 1 412.990403370979 111 76 76 8436 641136
650	2044865 8097 3387582 7295873 163.308844472947 345.120192333564 200 0.33333333333333 1 -nan -nan
654	2052962 4971 465508 8753771 26.73408 413.0688 195 120 120 23400 2808000
655	2057933 962 586373 8563725 31.989584 404.288768 38 29 29 1102 31958
662	2058895 3193 3403108 6817216 164.022790242625 322.651822843296 100 76 76 7600 577600
664	2062088 3200 3418660 6829615 164.740032333564 323.247552333564 100 76 76 7600 577600
665	2065288 4947 16162 8735117 1 412.199974436141 159 76 76 12084 918384
666	2070235 8143 3403108 6829615 164.022790242625 323.247552333564 200 0.5 1 -nan -nan
670	2078378 6268 381454 8745825 22.67904 412.70016 246 120 120 29520 3542400
671	2084646 998 643977 8742444 34.444048 412.519856 39 29 29 1131 32799
678	2085644 3185 3376090 8145793 162.76847211246 384.632425704842 100 76 76 7600 577600
680	2088829 3200 3386260 8152437 163.257792333564 384.933312333564 100 76 76 7600 577600
681	2092029 3436 16163 8753454 1 413.049374601806 111 76 76 8436 641136
682	2095465 7835 3376090 8152437 162.76847211246 384.933312333564 200 0.5 1 -nan -nan
686	2103300 5114 395616 8756376 23.41632 413.19168 201 120 120 24120 2894400
687	2108414 1024 394438 8753306 23.359568 413.03976 40 29 29 1160 33640
694	2109438 3191 3471395 7623278 167.227824038535 360.198774745618 100 76 76 7600 577600
696	2112629 3200 3486829 7641945 167.942592333564 361.094592333564 100 76 76 7600 577600
697	2115829 2701 16164 8673085 1 409.266926874163 87 76 76 6612 502512
698	2118530 8140 3471395 7641945 167.227824038535 361.094592333564 200 0.5 1 -nan -nan
702	2126670 4551 566672 8690642 31.15776 410.11968 178 120 120 21360 2563200
703	2131221 972 618375 8523926 33.353616 402.447712 38 29 29 1102 31958
710	2132193 3182 3343074 7618979 161.175681596663 360.004270685123 100 76 76 7600 577600
712	2135375 3200 3379311 7665672 162.927552333564 362.200512333564 100 76 76 7600 577600
713	2138575 3601 16165 8609099 1 406.351217571855 116 76 76 8816 670016
714	2142176 8067 3343074 7665672 161.175681596663 362.200512333564 200 0.5 1 -nan -nan
718	2150243 5231 429595 8611012 25.02144 406.44096 205 120 120 24600 2952000
719	2155474 963 630080 8524507 33.846992 402.481552 38 29 29 1102 31958
726	2156437 3187 3362738 7582230 162.112811991011 358.361657230634 100 76 76 7600 577600
728	2159624 3200 3373464 7592076 162.643392333564 358.798272333564 100 76 76 7600 577600
729	2162824 2927 16166 8662563 1 408.790268652079 94 76 76 7144 542944
730	2165751 7990 3362738 7592076 162.112811991011 358.798272333564 200 0.25 1 -nan -nan
734	2173741 4963 463389 8668012 26.62656 409.02912 195 120 120 23400 2808000
735	2178704 1019 406665 8745182 23.9728 412.666688 40 29 29 1160 33640
742	2179723 3188 3393861 7814955 163.605809439433 369.046787165378 100 76 76 7600 577600
744	2182911 3200 3415752 7825786 164.609472333564 369.573312333564 100 76 76 7600 577600
745	2186111 3203 16167 8732644 1 412.065226972446 103 76 76 7828 594928
746	2189314 8035 3393861 7825786 163.605809439433 369.573312333564 200 0.33333333333333 1 -nan -nan
750	2197349 4951 473902 8741534 27.12576 412.47744 194 120 120 23280 2793600
751	2202300 973 605078 8577753 32.750512 404.920544 38 29 29 1102 31958
758	2203273 3186 3451557 8435623 166.309806664764 398.265850917829 100 76 76 7600 577600
760	2206459 3200 3462641 8454690 166.828992333564 399.187392333564 100 76 76 7600 577600
761	2209659 2742 16168 8722813 1 411.602894059133 89 76 76 6764 514064
762	2212401 7858 3451557 8454690 166.309806664764 399.187392333564 200 0.33333333333333 1 -nan -nan
766	2220259 4524 437273 8730435 25.3824 411.96288 178 120 120 21360 2563200
767	2224783 995 632309 8703958 33.937632 410.714592 39 29 29 1131 32799
774	2225778 3190 3347491 7969999 161.389191044851 376.349362963507 100 76 76 7600 577600
776	2228968 3200 3360999 7991133 162.036672333564 377.322432333564 100 76 76 7600 577600
777	2232168 3083 16169 8758110 1 413.255912842864 100 76 76 7600 577600
778	2235251 7936 3347491 7991133 161.389191044851 377.322432333564 200 0.5 1 -nan -nan
782	2243187 4788 526344 8738194 29.44512 412.3392 188 120 120 22560 2707200
783	2247975 990 573858 8692242 31.509632 410.191344 39 29 29 1131 32799
790	2248965 3194 3371390 7898232 162.538719512798 373.041187045985 100 76 76 7600 577600
792	2252159 3200 3395192 7908817 163.649472333564 373.520832333564 100 76 76 7600 577600
793	2255359 2813 16170 8714216 1 411.189229559119 91 76 76 6916 525616
794	2258172 7955 3371390 7908817 162.538719512798 373.520832333564 200 0.33333333333333 1 -nan -nan
798	2266127 4563 486889 8722589 27.71712 411.59424 179 120 120 21480 2577600
799	2270690 964 632260 8538126 33.93336 403.109872 38 29 29 1102 31958
806	2271654 3183 3375825 7804251 162.759026128702 368.54085474735 100 76 76 7600 577600
808	2274837 3200 3381285 7813253 163.019712333564 368.966592333564 100 76 76 7600 577600
809	2278037 3421 16171 8748776 1 412.826035622428 111 76 76 8436 641136
810	2281458 7875 3375825 7813253 162.759026128702 368.966592333564 200 0.5 1 -nan -nan
814	2289333 4783 484096 8751663 27.60192 412.9536 188 120 120 22560 2707200
815	2294116 999 542851 8705962 30.138576 410.801376 39 29 29 1131 32799
822	2295115 3184 3442294 7439142 165.857173893549 351.777312650268 100 76 76 7600 577600
824	2298299 3200 3466162 7448968 166.990272333564 352.254912333564 100 76 76 7600 577600
825	2301499 3601 16172 8670145 1 409.128626967738 116 76 76 8816 670016
826	2305100 8141 3442294 7448968 165.857173893549 352.254912333564 200 0.5 1 -nan -nan
830	2313241 5161 483809 8673166 27.59424 409.2672 202 120 120 24240 2908800
831	2318402 970 644258 8476466 34.455872 400.258224 38 29 29 1102 31958
838	2319372 3194 3418904 7527187 164.747805231068 355.839715338051 100 76 76 7600 577600
840	2322566 3200 3437700 7582760 165.630912333564 358.391232333564 100 76 76 7600 577600
841	2325766 3613 16173 8620757 1 406.897961788737 117 76 76 8892 675792
842	2329379 8140 3418904 7582760 164.747805231068 358.391232333564 200 0.5 1 -nan -nan
846	2337519 5003 574315 8627222 31.5264 407.17824 197 120 120 23640 2836800
847	2342522 996 571125 8692896 31.370944 410.22752 39 29 29 1131 32799
854	2343518 3182 3341779 7292311 161.108370982992 344.943988971791 100 76 76 7600 577600
856	2346700 3200 3364655 7320083 162.190272333564 346.256832333564 100 76 76 7600 577600
857	2349900 3742 16174 8485875 1 400.687091222192 121 76 76 9196 698896
858	2353642 8140 3341779 7320083 161.108370982992 346.256832333564 200 0.33333333333333 1 -nan -nan
862	2361782 5199 744651 8490369 39.15264 400.91136 204 120 120 24480 2937600
863	2366981 992 649561 8751063 34.662144 412.925424 39 29 29 1131 32799
870	2367973 3184 3385230 7491113 163.197045391498 354.152814181234 100 76 76 7600 577600
872	2371157 3200 3406151 7524515 164.156352333564 355.718592333564 100 76 76 7600 577600
873	2374357 3420 16175 8741945 1 412.496596050552 110 76 76 8360 635360
874	2377777 8010 3385230 7524515 163.197045391498 355.718592333564 200 0.33333333333333 1 -nan -nan
878	2385787 5088 574301 8751473 31.5264 412.94592 199 120 120 23880 2865600
879	2390875 972 638571 8519311 34.1856 402.238016 38 29 29 1102 31958
886	2391847 3190 3443169 7496222 165.899351800003 354.383667430599 100 76 76 7600 577600
888	2395037 3200 3465865 7519433 166.974912333564 355.465152333564 100 76 76 7600 577600
889	2398237 3430 16176 8753582 1 413.060580987635 111 76 76 8436 641136
890	2401667 7946 3443169 7519433 165.899351800003 355.465152333564 200 0.4 1 -nan -nan
894	2409613 4868 494569 8719937 28.08576 411.47136 191 120 120 22920 2750400
895	2414481 972 576861 8537594 31.599216 403.083504 38 29 29 1102 31958
902	2415453 3179 3380908 8046593 163.007957032415 379.92449605334 100 76 76 7600 577600
904	2418632 3200 3392727 8059252 163.541952333564 380.548032333564 100 76 76 7600 577600
905	2421832 3121 16177 8745176 1 412.662780523502 101 76 76 7676 583376
906	2424953 8006 3380908 8059252 163.007957032415 380.548032333564 200 0.25 1 -nan -nan
910	2432959 4766 537195 8748967 29.93664 412.83072 187 120 120 22440 2692800
911	2437725 997 617924 8740579 33.32952 412.441536 39 29 29 1131 32799
918	2438722 3189 3354849 7764943 161.738885327973 366.707683153893 100 76 76 7600 577600
920	2441911 3200 3371884 7778716 162.558912333564 367.361472333564 100 76 76 7600 577600
921	2445111 2869 16178 8703073 1 410.666409731537 93 76 76 7068 537168
922	2447980 8121 3354849 7778716 161.738885327973 367.361472333564 200 0.5 1 -nan -nan
926	2456101 4661 495026 8710139 28.09344 410.98752 183 120 120 21960 2635200
927	2460762 996 604386 8751217 32.716352 412.93312 39 29 29 1131 32799
934	2461758 3193 3379459 7485871 162.932884498918 353.917289560362 100 76 76 7600 577600
936	2464951 3200 3400774 7501257 163.918272333564 354.620352333564 100 76 76 7600 577600
937	2468151 3503 16179 8744270 1 412.620086192119 113 76 76 8588 652688
938	2471654 8135 3379459 7501257 162.932884498918 354.620352333564 200 0.33333333333333 1 -nan -nan
942	2479789 5095 599636 8745787 32.5248 412.70016 200 120 120 24000 2880000
943	2484884 1001 598121 8732229 32.472416 412.041488 39 29 29 1131 32799
950	2485885 3186 3340920 7732664 161.058474585664 365.187394643583 100 76 76 7600 577600
952	2489071 3200 3358438 7755049 161.921472333564 366.263232333564 100 76 76 7600 577600
953	2492271 3252 16180 8708902 1 410.929693327825 105 76 76 7980 606480
954	2495523 7939 3340920 7755049 161.058474585664 366.263232333564 200 0.5 1 -nan -nan
958	2503462 4889 590700 8709948 32.1408 410.97984 192 120 120 23040 2764800
959	2508351 992 609409 8755865 32.952224 413.162768 39 29 29 1131 32799
966	2509343 3181 3346453 7723556 161.330907116889 364.790823730625 100 76 76 7600 577600
968	2512524 3200 3392382 7737134 163.526592333564 365.403072333564 100 76 76 7600 577600
969	2515724 2613 16181 8719500 1 411.448243543315 85 76 76 6460 490960
970	2518337 8005 3346453 7737134 161.330907116889 365.403072333564 200 0.5 1 -nan -nan
974	2526342 4289 706242 8728145 37.30944 411.84768 168 120 120 20160 2419200
975	2530631 996 559322 8697662 30.888288 410.427936 39 29 29 1131 32799
982	2531627 3186 3401222 7999027 163.940289372264 377.697455503799 100 76 76 7600 577600
984	2534813 3200 3416032 8009214 164.617152333564 378.182592333564 100 76 76 7600 577600
985	2538013 3041 16182 8712058 1 411.079167102431 98 76 76 7448 566048
986	2541054 7829 3401222 8009214 163.940289372264 378.182592333564 200 0.5 1 -nan -nan
990	2548883 4780 506036 8717778 28.57728 411.36384 187 120 120 22440 2692800
991	2553663 991 562113 8697687 31.004448 410.429632 39 29 29 1131 32799
