file 13747081 1481833400                                        
version 2
run DSME-0-20161215-20:19:44-17330
attr beaconInterval 10s
attr configname DSME
attr datetime 20161215-20:19:44
attr experiment DSME
attr inifile simulations/omnetpp.ini
attr iterationvars "$packetLength=76B, $sendInt=2, $beaconInterval=10s, $0=10s/2, $1=3 * 10s"
attr iterationvars2 "$packetLength=76B, $sendInt=2, $beaconInterval=10s, $0=10s/2, $1=3 * 10s, $repetition=0"
attr measurement "$packetLength=76B, $sendInt=2, $beaconInterval=10s, $0=10s/2, $1=3 * 10s"
attr network multi_gateway.Net802154MultiGateway
attr packetLength 76B
attr processid 17330
attr repetition 0
attr replication #0
attr resultdir ../results
attr runnumber 0
attr seedset 0
attr sendInt 2
param **.configurator.addStaticRoutes false
param **.dumpRoutes false
param **.dumpTopology false
param **.host[*].**.gpsr.beaconInterval "${beaconInterval = 10s}"
param **.host[*].**.gpsr.maxJitter ${$beaconInterval/2}
param **.host[*].**.gpsr.neighborValidityInterval "${3 * $beaconInterval}"
param **.host[*].**.gpsr.positionByteLength "2 B"
param **.host[*].**.gpsr.routingStrategy "\"StraightestPath\""
param **.host[*].**.trafficgen.continueSendingDummyPackets true
param **.host[*].**.trafficgen.coolDownDuration 15s
param **.host[*].**.trafficgen.destAddresses "\"host[0].wrappedHost(modulepath)\""
param **.host[*].**.trafficgen.packetLength "${packetLength = 76B}"
param **.host[*].**.trafficgen.sendInterval "exponential(${sendInt=1.0..2.5 step 0.25}s)"
param **.host[*].**.trafficgen.startTime 30s
param **.host[*].**.trafficgen.warmUpDuration 190s
param **.host[*].**.wlan[*].mac.macDSMEGTSExpirationTime 7
param **.host[*].**.wlan[*].macType "\"DSME\""
param **.host[*].**.wlan[*].radio.receiver.minInterferencePower "-100 dBm"
param **.host[*].hostType "\"SimpleHost\""
param **.host[*].mobilityType "\"StaticConcentricWrappingMobility\""
param **.host[0].**.trafficgen.numPackets 0
param **.host[0].**.wlan[*].mac.isPANCoordinator true
param **.host[1..].**.trafficgen.numPackets 100
param **.numHosts 62
param **.radioMedium.rangeFilter "\"interferenceRange\""
param **.routingTable.addressType "\"modulepath\""
param **.routingTableType "\"GenericRoutingTable\""

vector 17  Net802154MultiGateway.host[0].wrappedHost.wlan[0].mac  uncorruptedFrameReceived:vector(packetBytes)  ETV
attr interpolationmode  none
attr source  uncorruptedFrameReceived
attr title  "uncorrupted frame received, vector(packetBytes)"
vector 71  Net802154MultiGateway.host[3].wrappedHost.wlan[0].mac  uncorruptedFrameReceived:vector(packetBytes)  ETV
attr interpolationmode  none
attr source  uncorruptedFrameReceived
attr title  "uncorrupted frame received, vector(packetBytes)"
vector 107  Net802154MultiGateway.host[5].wrappedHost.wlan[0].mac  uncorruptedFrameReceived:vector(packetBytes)  ETV
attr interpolationmode  none
attr source  uncorruptedFrameReceived
attr title  "uncorrupted frame received, vector(packetBytes)"
vector 251  Net802154MultiGateway.host[13].wrappedHost.wlan[0].mac  uncorruptedFrameReceived:vector(packetBytes)  ETV
attr interpolationmode  none
attr source  uncorruptedFrameReceived
attr title  "uncorrupted frame received, vector(packetBytes)"
vector 233  Net802154MultiGateway.host[12].wrappedHost.wlan[0].mac  uncorruptedFrameReceived:vector(packetBytes)  ETV
attr interpolationmode  none
attr source  uncorruptedFrameReceived
attr title  "uncorrupted frame received, vector(packetBytes)"
vector 269  Net802154MultiGateway.host[14].wrappedHost.wlan[0].mac  uncorruptedFrameReceived:vector(packetBytes)  ETV
attr interpolationmode  none
attr source  uncorruptedFrameReceived
attr title  "uncorrupted frame received, vector(packetBytes)"
vector 52  Net802154MultiGateway.host[2].wrappedHost.wlan[0].mac  corruptedFrameReceived:vector(packetBytes)  ETV
attr interpolationmode  none
attr source  corruptedFrameReceived
attr title  "corrupted frame received, vector(packetBytes)"
vector 124  Net802154MultiGateway.host[6].wrappedHost.wlan[0].mac  corruptedFrameReceived:vector(packetBytes)  ETV
attr interpolationmode  none
attr source  corruptedFrameReceived
attr title  "corrupted frame received, vector(packetBytes)"
vector 214  Net802154MultiGateway.host[11].wrappedHost.wlan[0].mac  corruptedFrameReceived:vector(packetBytes)  ETV
attr interpolationmode  none
attr source  corruptedFrameReceived
attr title  "corrupted frame received, vector(packetBytes)"
vector 287  Net802154MultiGateway.host[15].wrappedHost.wlan[0].mac  uncorruptedFrameReceived:vector(packetBytes)  ETV
attr interpolationmode  none
attr source  uncorruptedFrameReceived
attr title  "uncorrupted frame received, vector(packetBytes)"
vector 35  Net802154MultiGateway.host[1].wrappedHost.wlan[0].mac  uncorruptedFrameReceived:vector(packetBytes)  ETV
attr interpolationmode  none
attr source  uncorruptedFrameReceived
attr title  "uncorrupted frame received, vector(packetBytes)"
vector 53  Net802154MultiGateway.host[2].wrappedHost.wlan[0].mac  uncorruptedFrameReceived:vector(packetBytes)  ETV
attr interpolationmode  none
attr source  uncorruptedFrameReceived
attr title  "uncorrupted frame received, vector(packetBytes)"
vector 89  Net802154MultiGateway.host[4].wrappedHost.wlan[0].mac  uncorruptedFrameReceived:vector(packetBytes)  ETV
attr interpolationmode  none
attr source  uncorruptedFrameReceived
attr title  "uncorrupted frame received, vector(packetBytes)"
vector 125  Net802154MultiGateway.host[6].wrappedHost.wlan[0].mac  uncorruptedFrameReceived:vector(packetBytes)  ETV
attr interpolationmode  none
attr source  uncorruptedFrameReceived
attr title  "uncorrupted frame received, vector(packetBytes)"
vector 323  Net802154MultiGateway.host[17].wrappedHost.wlan[0].mac  uncorruptedFrameReceived:vector(packetBytes)  ETV
attr interpolationmode  none
attr source  uncorruptedFrameReceived
attr title  "uncorrupted frame received, vector(packetBytes)"
vector 305  Net802154MultiGateway.host[16].wrappedHost.wlan[0].mac  uncorruptedFrameReceived:vector(packetBytes)  ETV
attr interpolationmode  none
attr source  uncorruptedFrameReceived
attr title  "uncorrupted frame received, vector(packetBytes)"
vector 341  Net802154MultiGateway.host[18].wrappedHost.wlan[0].mac  uncorruptedFrameReceived:vector(packetBytes)  ETV
attr interpolationmode  none
attr source  uncorruptedFrameReceived
attr title  "uncorrupted frame received, vector(packetBytes)"
vector 142  Net802154MultiGateway.host[7].wrappedHost.wlan[0].mac  corruptedFrameReceived:vector(packetBytes)  ETV
attr interpolationmode  none
attr source  corruptedFrameReceived
attr title  "corrupted frame received, vector(packetBytes)"
vector 286  Net802154MultiGateway.host[15].wrappedHost.wlan[0].mac  corruptedFrameReceived:vector(packetBytes)  ETV
attr interpolationmode  none
attr source  corruptedFrameReceived
attr title  "corrupted frame received, vector(packetBytes)"
vector 215  Net802154MultiGateway.host[11].wrappedHost.wlan[0].mac  uncorruptedFrameReceived:vector(packetBytes)  ETV
attr interpolationmode  none
attr source  uncorruptedFrameReceived
attr title  "uncorrupted frame received, vector(packetBytes)"
vector 197  Net802154MultiGateway.host[10].wrappedHost.wlan[0].mac  uncorruptedFrameReceived:vector(packetBytes)  ETV
attr interpolationmode  none
attr source  uncorruptedFrameReceived
attr title  "uncorrupted frame received, vector(packetBytes)"
vector 34  Net802154MultiGateway.host[1].wrappedHost.wlan[0].mac  corruptedFrameReceived:vector(packetBytes)  ETV
attr interpolationmode  none
attr source  corruptedFrameReceived
attr title  "corrupted frame received, vector(packetBytes)"
vector 106  Net802154MultiGateway.host[5].wrappedHost.wlan[0].mac  corruptedFrameReceived:vector(packetBytes)  ETV
attr interpolationmode  none
attr source  corruptedFrameReceived
attr title  "corrupted frame received, vector(packetBytes)"
vector 178  Net802154MultiGateway.host[9].wrappedHost.wlan[0].mac  corruptedFrameReceived:vector(packetBytes)  ETV
attr interpolationmode  none
attr source  corruptedFrameReceived
attr title  "corrupted frame received, vector(packetBytes)"
vector 250  Net802154MultiGateway.host[13].wrappedHost.wlan[0].mac  corruptedFrameReceived:vector(packetBytes)  ETV
attr interpolationmode  none
attr source  corruptedFrameReceived
attr title  "corrupted frame received, vector(packetBytes)"
vector 143  Net802154MultiGateway.host[7].wrappedHost.wlan[0].mac  uncorruptedFrameReceived:vector(packetBytes)  ETV
attr interpolationmode  none
attr source  uncorruptedFrameReceived
attr title  "uncorrupted frame received, vector(packetBytes)"
vector 161  Net802154MultiGateway.host[8].wrappedHost.wlan[0].mac  uncorruptedFrameReceived:vector(packetBytes)  ETV
attr interpolationmode  none
attr source  uncorruptedFrameReceived
attr title  "uncorrupted frame received, vector(packetBytes)"
vector 322  Net802154MultiGateway.host[17].wrappedHost.wlan[0].mac  corruptedFrameReceived:vector(packetBytes)  ETV
attr interpolationmode  none
attr source  corruptedFrameReceived
attr title  "corrupted frame received, vector(packetBytes)"
vector 70  Net802154MultiGateway.host[3].wrappedHost.wlan[0].mac  corruptedFrameReceived:vector(packetBytes)  ETV
attr interpolationmode  none
attr source  corruptedFrameReceived
attr title  "corrupted frame received, vector(packetBytes)"
vector 179  Net802154MultiGateway.host[9].wrappedHost.wlan[0].mac  uncorruptedFrameReceived:vector(packetBytes)  ETV
attr interpolationmode  none
attr source  uncorruptedFrameReceived
attr title  "uncorrupted frame received, vector(packetBytes)"
vector 88  Net802154MultiGateway.host[4].wrappedHost.wlan[0].mac  corruptedFrameReceived:vector(packetBytes)  ETV
attr interpolationmode  none
attr source  corruptedFrameReceived
attr title  "corrupted frame received, vector(packetBytes)"
vector 881  Net802154MultiGateway.host[48].wrappedHost.wlan[0].mac  uncorruptedFrameReceived:vector(packetBytes)  ETV
attr interpolationmode  none
attr source  uncorruptedFrameReceived
attr title  "uncorrupted frame received, vector(packetBytes)"
vector 485  Net802154MultiGateway.host[26].wrappedHost.wlan[0].mac  uncorruptedFrameReceived:vector(packetBytes)  ETV
attr interpolationmode  none
attr source  uncorruptedFrameReceived
attr title  "uncorrupted frame received, vector(packetBytes)"
vector 521  Net802154MultiGateway.host[28].wrappedHost.wlan[0].mac  uncorruptedFrameReceived:vector(packetBytes)  ETV
attr interpolationmode  none
attr source  uncorruptedFrameReceived
attr title  "uncorrupted frame received, vector(packetBytes)"
vector 899  Net802154MultiGateway.host[49].wrappedHost.wlan[0].mac  uncorruptedFrameReceived:vector(packetBytes)  ETV
attr interpolationmode  none
attr source  uncorruptedFrameReceived
attr title  "uncorrupted frame received, vector(packetBytes)"
vector 863  Net802154MultiGateway.host[47].wrappedHost.wlan[0].mac  uncorruptedFrameReceived:vector(packetBytes)  ETV
attr interpolationmode  none
attr source  uncorruptedFrameReceived
attr title  "uncorrupted frame received, vector(packetBytes)"
vector 935  Net802154MultiGateway.host[51].wrappedHost.wlan[0].mac  uncorruptedFrameReceived:vector(packetBytes)  ETV
attr interpolationmode  none
attr source  uncorruptedFrameReceived
attr title  "uncorrupted frame received, vector(packetBytes)"
vector 557  Net802154MultiGateway.host[30].wrappedHost.wlan[0].mac  uncorruptedFrameReceived:vector(packetBytes)  ETV
attr interpolationmode  none
attr source  uncorruptedFrameReceived
attr title  "uncorrupted frame received, vector(packetBytes)"
vector 917  Net802154MultiGateway.host[50].wrappedHost.wlan[0].mac  uncorruptedFrameReceived:vector(packetBytes)  ETV
attr interpolationmode  none
attr source  uncorruptedFrameReceived
attr title  "uncorrupted frame received, vector(packetBytes)"
vector 953  Net802154MultiGateway.host[52].wrappedHost.wlan[0].mac  uncorruptedFrameReceived:vector(packetBytes)  ETV
attr interpolationmode  none
attr source  uncorruptedFrameReceived
attr title  "uncorrupted frame received, vector(packetBytes)"
vector 503  Net802154MultiGateway.host[27].wrappedHost.wlan[0].mac  uncorruptedFrameReceived:vector(packetBytes)  ETV
attr interpolationmode  none
attr source  uncorruptedFrameReceived
attr title  "uncorrupted frame received, vector(packetBytes)"
vector 539  Net802154MultiGateway.host[29].wrappedHost.wlan[0].mac  uncorruptedFrameReceived:vector(packetBytes)  ETV
attr interpolationmode  none
attr source  uncorruptedFrameReceived
attr title  "uncorrupted frame received, vector(packetBytes)"
vector 484  Net802154MultiGateway.host[26].wrappedHost.wlan[0].mac  corruptedFrameReceived:vector(packetBytes)  ETV
attr interpolationmode  none
attr source  corruptedFrameReceived
attr title  "corrupted frame received, vector(packetBytes)"
vector 520  Net802154MultiGateway.host[28].wrappedHost.wlan[0].mac  corruptedFrameReceived:vector(packetBytes)  ETV
attr interpolationmode  none
attr source  corruptedFrameReceived
attr title  "corrupted frame received, vector(packetBytes)"
vector 827  Net802154MultiGateway.host[45].wrappedHost.wlan[0].mac  uncorruptedFrameReceived:vector(packetBytes)  ETV
attr interpolationmode  none
attr source  uncorruptedFrameReceived
attr title  "uncorrupted frame received, vector(packetBytes)"
vector 467  Net802154MultiGateway.host[25].wrappedHost.wlan[0].mac  uncorruptedFrameReceived:vector(packetBytes)  ETV
attr interpolationmode  none
attr source  uncorruptedFrameReceived
attr title  "uncorrupted frame received, vector(packetBytes)"
vector 773  Net802154MultiGateway.host[42].wrappedHost.wlan[0].mac  uncorruptedFrameReceived:vector(packetBytes)  ETV
attr interpolationmode  none
attr source  uncorruptedFrameReceived
attr title  "uncorrupted frame received, vector(packetBytes)"
vector 809  Net802154MultiGateway.host[44].wrappedHost.wlan[0].mac  uncorruptedFrameReceived:vector(packetBytes)  ETV
attr interpolationmode  none
attr source  uncorruptedFrameReceived
attr title  "uncorrupted frame received, vector(packetBytes)"
vector 431  Net802154MultiGateway.host[23].wrappedHost.wlan[0].mac  uncorruptedFrameReceived:vector(packetBytes)  ETV
attr interpolationmode  none
attr source  uncorruptedFrameReceived
attr title  "uncorrupted frame received, vector(packetBytes)"
vector 449  Net802154MultiGateway.host[24].wrappedHost.wlan[0].mac  uncorruptedFrameReceived:vector(packetBytes)  ETV
attr interpolationmode  none
attr source  uncorruptedFrameReceived
attr title  "uncorrupted frame received, vector(packetBytes)"
vector 683  Net802154MultiGateway.host[37].wrappedHost.wlan[0].mac  uncorruptedFrameReceived:vector(packetBytes)  ETV
attr interpolationmode  none
attr source  uncorruptedFrameReceived
attr title  "uncorrupted frame received, vector(packetBytes)"
vector 719  Net802154MultiGateway.host[39].wrappedHost.wlan[0].mac  uncorruptedFrameReceived:vector(packetBytes)  ETV
attr interpolationmode  none
attr source  uncorruptedFrameReceived
attr title  "uncorrupted frame received, vector(packetBytes)"
vector 377  Net802154MultiGateway.host[20].wrappedHost.wlan[0].mac  uncorruptedFrameReceived:vector(packetBytes)  ETV
attr interpolationmode  none
attr source  uncorruptedFrameReceived
attr title  "uncorrupted frame received, vector(packetBytes)"
vector 395  Net802154MultiGateway.host[21].wrappedHost.wlan[0].mac  uncorruptedFrameReceived:vector(packetBytes)  ETV
attr interpolationmode  none
attr source  uncorruptedFrameReceived
attr title  "uncorrupted frame received, vector(packetBytes)"
vector 359  Net802154MultiGateway.host[19].wrappedHost.wlan[0].mac  uncorruptedFrameReceived:vector(packetBytes)  ETV
attr interpolationmode  none
attr source  uncorruptedFrameReceived
attr title  "uncorrupted frame received, vector(packetBytes)"
vector 412  Net802154MultiGateway.host[22].wrappedHost.wlan[0].mac  corruptedFrameReceived:vector(packetBytes)  ETV
attr interpolationmode  none
attr source  corruptedFrameReceived
attr title  "corrupted frame received, vector(packetBytes)"
vector 629  Net802154MultiGateway.host[34].wrappedHost.wlan[0].mac  uncorruptedFrameReceived:vector(packetBytes)  ETV
attr interpolationmode  none
attr source  uncorruptedFrameReceived
attr title  "uncorrupted frame received, vector(packetBytes)"
vector 610  Net802154MultiGateway.host[33].wrappedHost.wlan[0].mac  corruptedFrameReceived:vector(packetBytes)  ETV
attr interpolationmode  none
attr source  corruptedFrameReceived
attr title  "corrupted frame received, vector(packetBytes)"
vector 647  Net802154MultiGateway.host[35].wrappedHost.wlan[0].mac  uncorruptedFrameReceived:vector(packetBytes)  ETV
attr interpolationmode  none
attr source  uncorruptedFrameReceived
attr title  "uncorrupted frame received, vector(packetBytes)"
vector 1025  Net802154MultiGateway.host[56].wrappedHost.wlan[0].mac  uncorruptedFrameReceived:vector(packetBytes)  ETV
attr interpolationmode  none
attr source  uncorruptedFrameReceived
attr title  "uncorrupted frame received, vector(packetBytes)"
vector 1061  Net802154MultiGateway.host[58].wrappedHost.wlan[0].mac  uncorruptedFrameReceived:vector(packetBytes)  ETV
attr interpolationmode  none
attr source  uncorruptedFrameReceived
attr title  "uncorrupted frame received, vector(packetBytes)"
vector 593  Net802154MultiGateway.host[32].wrappedHost.wlan[0].mac  uncorruptedFrameReceived:vector(packetBytes)  ETV
attr interpolationmode  none
attr source  uncorruptedFrameReceived
attr title  "uncorrupted frame received, vector(packetBytes)"
vector 611  Net802154MultiGateway.host[33].wrappedHost.wlan[0].mac  uncorruptedFrameReceived:vector(packetBytes)  ETV
attr interpolationmode  none
attr source  uncorruptedFrameReceived
attr title  "uncorrupted frame received, vector(packetBytes)"
vector 575  Net802154MultiGateway.host[31].wrappedHost.wlan[0].mac  uncorruptedFrameReceived:vector(packetBytes)  ETV
attr interpolationmode  none
attr source  uncorruptedFrameReceived
attr title  "uncorrupted frame received, vector(packetBytes)"
vector 628  Net802154MultiGateway.host[34].wrappedHost.wlan[0].mac  corruptedFrameReceived:vector(packetBytes)  ETV
attr interpolationmode  none
attr source  corruptedFrameReceived
attr title  "corrupted frame received, vector(packetBytes)"
vector 791  Net802154MultiGateway.host[43].wrappedHost.wlan[0].mac  uncorruptedFrameReceived:vector(packetBytes)  ETV
attr interpolationmode  none
attr source  uncorruptedFrameReceived
attr title  "uncorrupted frame received, vector(packetBytes)"
vector 1097  Net802154MultiGateway.host[60].wrappedHost.wlan[0].mac  uncorruptedFrameReceived:vector(packetBytes)  ETV
attr interpolationmode  none
attr source  uncorruptedFrameReceived
attr title  "uncorrupted frame received, vector(packetBytes)"
vector 665  Net802154MultiGateway.host[36].wrappedHost.wlan[0].mac  uncorruptedFrameReceived:vector(packetBytes)  ETV
attr interpolationmode  none
attr source  uncorruptedFrameReceived
attr title  "uncorrupted frame received, vector(packetBytes)"
vector 646  Net802154MultiGateway.host[35].wrappedHost.wlan[0].mac  corruptedFrameReceived:vector(packetBytes)  ETV
attr interpolationmode  none
attr source  corruptedFrameReceived
attr title  "corrupted frame received, vector(packetBytes)"
vector 989  Net802154MultiGateway.host[54].wrappedHost.wlan[0].mac  uncorruptedFrameReceived:vector(packetBytes)  ETV
attr interpolationmode  none
attr source  uncorruptedFrameReceived
attr title  "uncorrupted frame received, vector(packetBytes)"
vector 413  Net802154MultiGateway.host[22].wrappedHost.wlan[0].mac  uncorruptedFrameReceived:vector(packetBytes)  ETV
attr interpolationmode  none
attr source  uncorruptedFrameReceived
attr title  "uncorrupted frame received, vector(packetBytes)"
vector 466  Net802154MultiGateway.host[25].wrappedHost.wlan[0].mac  corruptedFrameReceived:vector(packetBytes)  ETV
attr interpolationmode  none
attr source  corruptedFrameReceived
attr title  "corrupted frame received, vector(packetBytes)"
vector 934  Net802154MultiGateway.host[51].wrappedHost.wlan[0].mac  corruptedFrameReceived:vector(packetBytes)  ETV
attr interpolationmode  none
attr source  corruptedFrameReceived
attr title  "corrupted frame received, vector(packetBytes)"
vector 574  Net802154MultiGateway.host[31].wrappedHost.wlan[0].mac  corruptedFrameReceived:vector(packetBytes)  ETV
attr interpolationmode  none
attr source  corruptedFrameReceived
attr title  "corrupted frame received, vector(packetBytes)"
vector 358  Net802154MultiGateway.host[19].wrappedHost.wlan[0].mac  corruptedFrameReceived:vector(packetBytes)  ETV
attr interpolationmode  none
attr source  corruptedFrameReceived
attr title  "corrupted frame received, vector(packetBytes)"
vector 304  Net802154MultiGateway.host[16].wrappedHost.wlan[0].mac  corruptedFrameReceived:vector(packetBytes)  ETV
attr interpolationmode  none
attr source  corruptedFrameReceived
attr title  "corrupted frame received, vector(packetBytes)"
vector 15  Net802154MultiGateway.host[0].wrappedHost.wlan[0].mac  broadDataSentDown:vector(packetBytes)  ETV
attr interpolationmode  none
attr source  broadcastDataSentDown
attr title  "broadcast packet sent down of type DATA, vector(packetBytes)"
vector 755  Net802154MultiGateway.host[41].wrappedHost.wlan[0].mac  uncorruptedFrameReceived:vector(packetBytes)  ETV
attr interpolationmode  none
attr source  uncorruptedFrameReceived
attr title  "uncorrupted frame received, vector(packetBytes)"
vector 737  Net802154MultiGateway.host[40].wrappedHost.wlan[0].mac  uncorruptedFrameReceived:vector(packetBytes)  ETV
attr interpolationmode  none
attr source  uncorruptedFrameReceived
attr title  "uncorrupted frame received, vector(packetBytes)"
vector 1079  Net802154MultiGateway.host[59].wrappedHost.wlan[0].mac  uncorruptedFrameReceived:vector(packetBytes)  ETV
attr interpolationmode  none
attr source  uncorruptedFrameReceived
attr title  "uncorrupted frame received, vector(packetBytes)"
vector 1114  Net802154MultiGateway.host[61].wrappedHost.wlan[0].mac  corruptedFrameReceived:vector(packetBytes)  ETV
attr interpolationmode  none
attr source  corruptedFrameReceived
attr title  "corrupted frame received, vector(packetBytes)"
vector 971  Net802154MultiGateway.host[53].wrappedHost.wlan[0].mac  uncorruptedFrameReceived:vector(packetBytes)  ETV
attr interpolationmode  none
attr source  uncorruptedFrameReceived
attr title  "uncorrupted frame received, vector(packetBytes)"
vector 1007  Net802154MultiGateway.host[55].wrappedHost.wlan[0].mac  uncorruptedFrameReceived:vector(packetBytes)  ETV
attr interpolationmode  none
attr source  uncorruptedFrameReceived
attr title  "uncorrupted frame received, vector(packetBytes)"
vector 952  Net802154MultiGateway.host[52].wrappedHost.wlan[0].mac  corruptedFrameReceived:vector(packetBytes)  ETV
attr interpolationmode  none
attr source  corruptedFrameReceived
attr title  "corrupted frame received, vector(packetBytes)"
vector 701  Net802154MultiGateway.host[38].wrappedHost.wlan[0].mac  uncorruptedFrameReceived:vector(packetBytes)  ETV
attr interpolationmode  none
attr source  uncorruptedFrameReceived
attr title  "uncorrupted frame received, vector(packetBytes)"
vector 430  Net802154MultiGateway.host[23].wrappedHost.wlan[0].mac  corruptedFrameReceived:vector(packetBytes)  ETV
attr interpolationmode  none
attr source  corruptedFrameReceived
attr title  "corrupted frame received, vector(packetBytes)"
vector 268  Net802154MultiGateway.host[14].wrappedHost.wlan[0].mac  corruptedFrameReceived:vector(packetBytes)  ETV
attr interpolationmode  none
attr source  corruptedFrameReceived
attr title  "corrupted frame received, vector(packetBytes)"
vector 1043  Net802154MultiGateway.host[57].wrappedHost.wlan[0].mac  uncorruptedFrameReceived:vector(packetBytes)  ETV
attr interpolationmode  none
attr source  uncorruptedFrameReceived
attr title  "uncorrupted frame received, vector(packetBytes)"
vector 1115  Net802154MultiGateway.host[61].wrappedHost.wlan[0].mac  uncorruptedFrameReceived:vector(packetBytes)  ETV
attr interpolationmode  none
attr source  uncorruptedFrameReceived
attr title  "uncorrupted frame received, vector(packetBytes)"
vector 340  Net802154MultiGateway.host[18].wrappedHost.wlan[0].mac  corruptedFrameReceived:vector(packetBytes)  ETV
attr interpolationmode  none
attr source  corruptedFrameReceived
attr title  "corrupted frame received, vector(packetBytes)"
vector 1060  Net802154MultiGateway.host[58].wrappedHost.wlan[0].mac  corruptedFrameReceived:vector(packetBytes)  ETV
attr interpolationmode  none
attr source  corruptedFrameReceived
attr title  "corrupted frame received, vector(packetBytes)"
vector 1006  Net802154MultiGateway.host[55].wrappedHost.wlan[0].mac  corruptedFrameReceived:vector(packetBytes)  ETV
attr interpolationmode  none
attr source  corruptedFrameReceived
attr title  "corrupted frame received, vector(packetBytes)"
vector 609  Net802154MultiGateway.host[33].wrappedHost.wlan[0].mac  broadDataSentDown:vector(packetBytes)  ETV
attr interpolationmode  none
attr source  broadcastDataSentDown
attr title  "broadcast packet sent down of type DATA, vector(packetBytes)"
vector 303  Net802154MultiGateway.host[16].wrappedHost.wlan[0].mac  broadDataSentDown:vector(packetBytes)  ETV
attr interpolationmode  none
attr source  broadcastDataSentDown
attr title  "broadcast packet sent down of type DATA, vector(packetBytes)"
vector 845  Net802154MultiGateway.host[46].wrappedHost.wlan[0].mac  uncorruptedFrameReceived:vector(packetBytes)  ETV
attr interpolationmode  none
attr source  uncorruptedFrameReceived
attr title  "uncorrupted frame received, vector(packetBytes)"
vector 123  Net802154MultiGateway.host[6].wrappedHost.wlan[0].mac  broadDataSentDown:vector(packetBytes)  ETV
attr interpolationmode  none
attr source  broadcastDataSentDown
attr title  "broadcast packet sent down of type DATA, vector(packetBytes)"
vector 502  Net802154MultiGateway.host[27].wrappedHost.wlan[0].mac  corruptedFrameReceived:vector(packetBytes)  ETV
attr interpolationmode  none
attr source  corruptedFrameReceived
attr title  "corrupted frame received, vector(packetBytes)"
vector 1024  Net802154MultiGateway.host[56].wrappedHost.wlan[0].mac  corruptedFrameReceived:vector(packetBytes)  ETV
attr interpolationmode  none
attr source  corruptedFrameReceived
attr title  "corrupted frame received, vector(packetBytes)"
vector 988  Net802154MultiGateway.host[54].wrappedHost.wlan[0].mac  corruptedFrameReceived:vector(packetBytes)  ETV
attr interpolationmode  none
attr source  corruptedFrameReceived
attr title  "corrupted frame received, vector(packetBytes)"
vector 592  Net802154MultiGateway.host[32].wrappedHost.wlan[0].mac  corruptedFrameReceived:vector(packetBytes)  ETV
attr interpolationmode  none
attr source  corruptedFrameReceived
attr title  "corrupted frame received, vector(packetBytes)"
vector 556  Net802154MultiGateway.host[30].wrappedHost.wlan[0].mac  corruptedFrameReceived:vector(packetBytes)  ETV
attr interpolationmode  none
attr source  corruptedFrameReceived
attr title  "corrupted frame received, vector(packetBytes)"
vector 1078  Net802154MultiGateway.host[59].wrappedHost.wlan[0].mac  corruptedFrameReceived:vector(packetBytes)  ETV
attr interpolationmode  none
attr source  corruptedFrameReceived
attr title  "corrupted frame received, vector(packetBytes)"
vector 376  Net802154MultiGateway.host[20].wrappedHost.wlan[0].mac  corruptedFrameReceived:vector(packetBytes)  ETV
attr interpolationmode  none
attr source  corruptedFrameReceived
attr title  "corrupted frame received, vector(packetBytes)"
vector 394  Net802154MultiGateway.host[21].wrappedHost.wlan[0].mac  corruptedFrameReceived:vector(packetBytes)  ETV
attr interpolationmode  none
attr source  corruptedFrameReceived
attr title  "corrupted frame received, vector(packetBytes)"
vector 160  Net802154MultiGateway.host[8].wrappedHost.wlan[0].mac  corruptedFrameReceived:vector(packetBytes)  ETV
attr interpolationmode  none
attr source  corruptedFrameReceived
attr title  "corrupted frame received, vector(packetBytes)"
vector 682  Net802154MultiGateway.host[37].wrappedHost.wlan[0].mac  corruptedFrameReceived:vector(packetBytes)  ETV
attr interpolationmode  none
attr source  corruptedFrameReceived
attr title  "corrupted frame received, vector(packetBytes)"
vector 736  Net802154MultiGateway.host[40].wrappedHost.wlan[0].mac  corruptedFrameReceived:vector(packetBytes)  ETV
attr interpolationmode  none
attr source  corruptedFrameReceived
attr title  "corrupted frame received, vector(packetBytes)"
vector 196  Net802154MultiGateway.host[10].wrappedHost.wlan[0].mac  corruptedFrameReceived:vector(packetBytes)  ETV
attr interpolationmode  none
attr source  corruptedFrameReceived
attr title  "corrupted frame received, vector(packetBytes)"
vector 664  Net802154MultiGateway.host[36].wrappedHost.wlan[0].mac  corruptedFrameReceived:vector(packetBytes)  ETV
attr interpolationmode  none
attr source  corruptedFrameReceived
attr title  "corrupted frame received, vector(packetBytes)"
vector 538  Net802154MultiGateway.host[29].wrappedHost.wlan[0].mac  corruptedFrameReceived:vector(packetBytes)  ETV
attr interpolationmode  none
attr source  corruptedFrameReceived
attr title  "corrupted frame received, vector(packetBytes)"
vector 754  Net802154MultiGateway.host[41].wrappedHost.wlan[0].mac  corruptedFrameReceived:vector(packetBytes)  ETV
attr interpolationmode  none
attr source  corruptedFrameReceived
attr title  "corrupted frame received, vector(packetBytes)"
vector 700  Net802154MultiGateway.host[38].wrappedHost.wlan[0].mac  corruptedFrameReceived:vector(packetBytes)  ETV
attr interpolationmode  none
attr source  corruptedFrameReceived
attr title  "corrupted frame received, vector(packetBytes)"
vector 448  Net802154MultiGateway.host[24].wrappedHost.wlan[0].mac  corruptedFrameReceived:vector(packetBytes)  ETV
attr interpolationmode  none
attr source  corruptedFrameReceived
attr title  "corrupted frame received, vector(packetBytes)"
vector 808  Net802154MultiGateway.host[44].wrappedHost.wlan[0].mac  corruptedFrameReceived:vector(packetBytes)  ETV
attr interpolationmode  none
attr source  corruptedFrameReceived
attr title  "corrupted frame received, vector(packetBytes)"
vector 33  Net802154MultiGateway.host[1].wrappedHost.wlan[0].mac  broadDataSentDown:vector(packetBytes)  ETV
attr interpolationmode  none
attr source  broadcastDataSentDown
attr title  "broadcast packet sent down of type DATA, vector(packetBytes)"
vector 375  Net802154MultiGateway.host[20].wrappedHost.wlan[0].mac  broadDataSentDown:vector(packetBytes)  ETV
attr interpolationmode  none
attr source  broadcastDataSentDown
attr title  "broadcast packet sent down of type DATA, vector(packetBytes)"
vector 321  Net802154MultiGateway.host[17].wrappedHost.wlan[0].mac  broadDataSentDown:vector(packetBytes)  ETV
attr interpolationmode  none
attr source  broadcastDataSentDown
attr title  "broadcast packet sent down of type DATA, vector(packetBytes)"
vector 105  Net802154MultiGateway.host[5].wrappedHost.wlan[0].mac  broadDataSentDown:vector(packetBytes)  ETV
attr interpolationmode  none
attr source  broadcastDataSentDown
attr title  "broadcast packet sent down of type DATA, vector(packetBytes)"
vector 339  Net802154MultiGateway.host[18].wrappedHost.wlan[0].mac  broadDataSentDown:vector(packetBytes)  ETV
attr interpolationmode  none
attr source  broadcastDataSentDown
attr title  "broadcast packet sent down of type DATA, vector(packetBytes)"
vector 231  Net802154MultiGateway.host[12].wrappedHost.wlan[0].mac  broadDataSentDown:vector(packetBytes)  ETV
attr interpolationmode  none
attr source  broadcastDataSentDown
attr title  "broadcast packet sent down of type DATA, vector(packetBytes)"
vector 267  Net802154MultiGateway.host[14].wrappedHost.wlan[0].mac  broadDataSentDown:vector(packetBytes)  ETV
attr interpolationmode  none
attr source  broadcastDataSentDown
attr title  "broadcast packet sent down of type DATA, vector(packetBytes)"
vector 1041  Net802154MultiGateway.host[57].wrappedHost.wlan[0].mac  broadDataSentDown:vector(packetBytes)  ETV
attr interpolationmode  none
attr source  broadcastDataSentDown
attr title  "broadcast packet sent down of type DATA, vector(packetBytes)"
vector 87  Net802154MultiGateway.host[4].wrappedHost.wlan[0].mac  broadDataSentDown:vector(packetBytes)  ETV
attr interpolationmode  none
attr source  broadcastDataSentDown
attr title  "broadcast packet sent down of type DATA, vector(packetBytes)"
vector 1113  Net802154MultiGateway.host[61].wrappedHost.wlan[0].mac  broadDataSentDown:vector(packetBytes)  ETV
attr interpolationmode  none
attr source  broadcastDataSentDown
attr title  "broadcast packet sent down of type DATA, vector(packetBytes)"
vector 1059  Net802154MultiGateway.host[58].wrappedHost.wlan[0].mac  broadDataSentDown:vector(packetBytes)  ETV
attr interpolationmode  none
attr source  broadcastDataSentDown
attr title  "broadcast packet sent down of type DATA, vector(packetBytes)"
vector 862  Net802154MultiGateway.host[47].wrappedHost.wlan[0].mac  corruptedFrameReceived:vector(packetBytes)  ETV
attr interpolationmode  none
attr source  corruptedFrameReceived
attr title  "corrupted frame received, vector(packetBytes)"
vector 627  Net802154MultiGateway.host[34].wrappedHost.wlan[0].mac  broadDataSentDown:vector(packetBytes)  ETV
attr interpolationmode  none
attr source  broadcastDataSentDown
attr title  "broadcast packet sent down of type DATA, vector(packetBytes)"
vector 1095  Net802154MultiGateway.host[60].wrappedHost.wlan[0].mac  broadDataSentDown:vector(packetBytes)  ETV
attr interpolationmode  none
attr source  broadcastDataSentDown
attr title  "broadcast packet sent down of type DATA, vector(packetBytes)"
vector 645  Net802154MultiGateway.host[35].wrappedHost.wlan[0].mac  broadDataSentDown:vector(packetBytes)  ETV
attr interpolationmode  none
attr source  broadcastDataSentDown
attr title  "broadcast packet sent down of type DATA, vector(packetBytes)"
vector 555  Net802154MultiGateway.host[30].wrappedHost.wlan[0].mac  broadDataSentDown:vector(packetBytes)  ETV
attr interpolationmode  none
attr source  broadcastDataSentDown
attr title  "broadcast packet sent down of type DATA, vector(packetBytes)"
vector 213  Net802154MultiGateway.host[11].wrappedHost.wlan[0].mac  broadDataSentDown:vector(packetBytes)  ETV
attr interpolationmode  none
attr source  broadcastDataSentDown
attr title  "broadcast packet sent down of type DATA, vector(packetBytes)"
vector 826  Net802154MultiGateway.host[45].wrappedHost.wlan[0].mac  corruptedFrameReceived:vector(packetBytes)  ETV
attr interpolationmode  none
attr source  corruptedFrameReceived
attr title  "corrupted frame received, vector(packetBytes)"
vector 177  Net802154MultiGateway.host[9].wrappedHost.wlan[0].mac  broadDataSentDown:vector(packetBytes)  ETV
attr interpolationmode  none
attr source  broadcastDataSentDown
attr title  "broadcast packet sent down of type DATA, vector(packetBytes)"
vector 141  Net802154MultiGateway.host[7].wrappedHost.wlan[0].mac  broadDataSentDown:vector(packetBytes)  ETV
attr interpolationmode  none
attr source  broadcastDataSentDown
attr title  "broadcast packet sent down of type DATA, vector(packetBytes)"
vector 951  Net802154MultiGateway.host[52].wrappedHost.wlan[0].mac  broadDataSentDown:vector(packetBytes)  ETV
attr interpolationmode  none
attr source  broadcastDataSentDown
attr title  "broadcast packet sent down of type DATA, vector(packetBytes)"
vector 411  Net802154MultiGateway.host[22].wrappedHost.wlan[0].mac  broadDataSentDown:vector(packetBytes)  ETV
attr interpolationmode  none
attr source  broadcastDataSentDown
attr title  "broadcast packet sent down of type DATA, vector(packetBytes)"
vector 933  Net802154MultiGateway.host[51].wrappedHost.wlan[0].mac  broadDataSentDown:vector(packetBytes)  ETV
attr interpolationmode  none
attr source  broadcastDataSentDown
attr title  "broadcast packet sent down of type DATA, vector(packetBytes)"
vector 880  Net802154MultiGateway.host[48].wrappedHost.wlan[0].mac  corruptedFrameReceived:vector(packetBytes)  ETV
attr interpolationmode  none
attr source  corruptedFrameReceived
attr title  "corrupted frame received, vector(packetBytes)"
vector 1005  Net802154MultiGateway.host[55].wrappedHost.wlan[0].mac  broadDataSentDown:vector(packetBytes)  ETV
attr interpolationmode  none
attr source  broadcastDataSentDown
attr title  "broadcast packet sent down of type DATA, vector(packetBytes)"
vector 159  Net802154MultiGateway.host[8].wrappedHost.wlan[0].mac  broadDataSentDown:vector(packetBytes)  ETV
attr interpolationmode  none
attr source  broadcastDataSentDown
attr title  "broadcast packet sent down of type DATA, vector(packetBytes)"
vector 429  Net802154MultiGateway.host[23].wrappedHost.wlan[0].mac  broadDataSentDown:vector(packetBytes)  ETV
attr interpolationmode  none
attr source  broadcastDataSentDown
attr title  "broadcast packet sent down of type DATA, vector(packetBytes)"
vector 51  Net802154MultiGateway.host[2].wrappedHost.wlan[0].mac  broadDataSentDown:vector(packetBytes)  ETV
attr interpolationmode  none
attr source  broadcastDataSentDown
attr title  "broadcast packet sent down of type DATA, vector(packetBytes)"
vector 285  Net802154MultiGateway.host[15].wrappedHost.wlan[0].mac  broadDataSentDown:vector(packetBytes)  ETV
attr interpolationmode  none
attr source  broadcastDataSentDown
attr title  "broadcast packet sent down of type DATA, vector(packetBytes)"
vector 987  Net802154MultiGateway.host[54].wrappedHost.wlan[0].mac  broadDataSentDown:vector(packetBytes)  ETV
attr interpolationmode  none
attr source  broadcastDataSentDown
attr title  "broadcast packet sent down of type DATA, vector(packetBytes)"
vector 69  Net802154MultiGateway.host[3].wrappedHost.wlan[0].mac  broadDataSentDown:vector(packetBytes)  ETV
attr interpolationmode  none
attr source  broadcastDataSentDown
attr title  "broadcast packet sent down of type DATA, vector(packetBytes)"
vector 393  Net802154MultiGateway.host[21].wrappedHost.wlan[0].mac  broadDataSentDown:vector(packetBytes)  ETV
attr interpolationmode  none
attr source  broadcastDataSentDown
attr title  "broadcast packet sent down of type DATA, vector(packetBytes)"
vector 663  Net802154MultiGateway.host[36].wrappedHost.wlan[0].mac  broadDataSentDown:vector(packetBytes)  ETV
attr interpolationmode  none
attr source  broadcastDataSentDown
attr title  "broadcast packet sent down of type DATA, vector(packetBytes)"
vector 195  Net802154MultiGateway.host[10].wrappedHost.wlan[0].mac  broadDataSentDown:vector(packetBytes)  ETV
attr interpolationmode  none
attr source  broadcastDataSentDown
attr title  "broadcast packet sent down of type DATA, vector(packetBytes)"
vector 681  Net802154MultiGateway.host[37].wrappedHost.wlan[0].mac  broadDataSentDown:vector(packetBytes)  ETV
attr interpolationmode  none
attr source  broadcastDataSentDown
attr title  "broadcast packet sent down of type DATA, vector(packetBytes)"
vector 591  Net802154MultiGateway.host[32].wrappedHost.wlan[0].mac  broadDataSentDown:vector(packetBytes)  ETV
attr interpolationmode  none
attr source  broadcastDataSentDown
attr title  "broadcast packet sent down of type DATA, vector(packetBytes)"
vector 771  Net802154MultiGateway.host[42].wrappedHost.wlan[0].mac  broadDataSentDown:vector(packetBytes)  ETV
attr interpolationmode  none
attr source  broadcastDataSentDown
attr title  "broadcast packet sent down of type DATA, vector(packetBytes)"
vector 232  Net802154MultiGateway.host[12].wrappedHost.wlan[0].mac  corruptedFrameReceived:vector(packetBytes)  ETV
attr interpolationmode  none
attr source  corruptedFrameReceived
attr title  "corrupted frame received, vector(packetBytes)"
vector 9  Net802154MultiGateway.host[0].wrappedHost.trafficgen  sentDummyPk:vector(packetBytes)  ETV
attr interpolationmode  none
attr source  sentDummyPk
attr title  "dummy packets sent, vector(packetBytes)"
vector 27  Net802154MultiGateway.host[1].wrappedHost.trafficgen  sentDummyPk:vector(packetBytes)  ETV
attr interpolationmode  none
attr source  sentDummyPk
attr title  "dummy packets sent, vector(packetBytes)"
vector 45  Net802154MultiGateway.host[2].wrappedHost.trafficgen  sentDummyPk:vector(packetBytes)  ETV
attr interpolationmode  none
attr source  sentDummyPk
attr title  "dummy packets sent, vector(packetBytes)"
vector 63  Net802154MultiGateway.host[3].wrappedHost.trafficgen  sentDummyPk:vector(packetBytes)  ETV
attr interpolationmode  none
attr source  sentDummyPk
attr title  "dummy packets sent, vector(packetBytes)"
vector 81  Net802154MultiGateway.host[4].wrappedHost.trafficgen  sentDummyPk:vector(packetBytes)  ETV
attr interpolationmode  none
attr source  sentDummyPk
attr title  "dummy packets sent, vector(packetBytes)"
vector 99  Net802154MultiGateway.host[5].wrappedHost.trafficgen  sentDummyPk:vector(packetBytes)  ETV
attr interpolationmode  none
attr source  sentDummyPk
attr title  "dummy packets sent, vector(packetBytes)"
vector 117  Net802154MultiGateway.host[6].wrappedHost.trafficgen  sentDummyPk:vector(packetBytes)  ETV
attr interpolationmode  none
attr source  sentDummyPk
attr title  "dummy packets sent, vector(packetBytes)"
vector 135  Net802154MultiGateway.host[7].wrappedHost.trafficgen  sentDummyPk:vector(packetBytes)  ETV
attr interpolationmode  none
attr source  sentDummyPk
attr title  "dummy packets sent, vector(packetBytes)"
vector 153  Net802154MultiGateway.host[8].wrappedHost.trafficgen  sentDummyPk:vector(packetBytes)  ETV
attr interpolationmode  none
attr source  sentDummyPk
attr title  "dummy packets sent, vector(packetBytes)"
vector 171  Net802154MultiGateway.host[9].wrappedHost.trafficgen  sentDummyPk:vector(packetBytes)  ETV
attr interpolationmode  none
attr source  sentDummyPk
attr title  "dummy packets sent, vector(packetBytes)"
vector 189  Net802154MultiGateway.host[10].wrappedHost.trafficgen  sentDummyPk:vector(packetBytes)  ETV
attr interpolationmode  none
attr source  sentDummyPk
attr title  "dummy packets sent, vector(packetBytes)"
vector 207  Net802154MultiGateway.host[11].wrappedHost.trafficgen  sentDummyPk:vector(packetBytes)  ETV
attr interpolationmode  none
attr source  sentDummyPk
attr title  "dummy packets sent, vector(packetBytes)"
vector 225  Net802154MultiGateway.host[12].wrappedHost.trafficgen  sentDummyPk:vector(packetBytes)  ETV
attr interpolationmode  none
attr source  sentDummyPk
attr title  "dummy packets sent, vector(packetBytes)"
vector 243  Net802154MultiGateway.host[13].wrappedHost.trafficgen  sentDummyPk:vector(packetBytes)  ETV
attr interpolationmode  none
attr source  sentDummyPk
attr title  "dummy packets sent, vector(packetBytes)"
vector 261  Net802154MultiGateway.host[14].wrappedHost.trafficgen  sentDummyPk:vector(packetBytes)  ETV
attr interpolationmode  none
attr source  sentDummyPk
attr title  "dummy packets sent, vector(packetBytes)"
vector 279  Net802154MultiGateway.host[15].wrappedHost.trafficgen  sentDummyPk:vector(packetBytes)  ETV
attr interpolationmode  none
attr source  sentDummyPk
attr title  "dummy packets sent, vector(packetBytes)"
vector 297  Net802154MultiGateway.host[16].wrappedHost.trafficgen  sentDummyPk:vector(packetBytes)  ETV
attr interpolationmode  none
attr source  sentDummyPk
attr title  "dummy packets sent, vector(packetBytes)"
vector 315  Net802154MultiGateway.host[17].wrappedHost.trafficgen  sentDummyPk:vector(packetBytes)  ETV
attr interpolationmode  none
attr source  sentDummyPk
attr title  "dummy packets sent, vector(packetBytes)"
vector 333  Net802154MultiGateway.host[18].wrappedHost.trafficgen  sentDummyPk:vector(packetBytes)  ETV
attr interpolationmode  none
attr source  sentDummyPk
attr title  "dummy packets sent, vector(packetBytes)"
vector 351  Net802154MultiGateway.host[19].wrappedHost.trafficgen  sentDummyPk:vector(packetBytes)  ETV
attr interpolationmode  none
attr source  sentDummyPk
attr title  "dummy packets sent, vector(packetBytes)"
vector 369  Net802154MultiGateway.host[20].wrappedHost.trafficgen  sentDummyPk:vector(packetBytes)  ETV
attr interpolationmode  none
attr source  sentDummyPk
attr title  "dummy packets sent, vector(packetBytes)"
vector 387  Net802154MultiGateway.host[21].wrappedHost.trafficgen  sentDummyPk:vector(packetBytes)  ETV
attr interpolationmode  none
attr source  sentDummyPk
attr title  "dummy packets sent, vector(packetBytes)"
vector 405  Net802154MultiGateway.host[22].wrappedHost.trafficgen  sentDummyPk:vector(packetBytes)  ETV
attr interpolationmode  none
attr source  sentDummyPk
attr title  "dummy packets sent, vector(packetBytes)"
vector 423  Net802154MultiGateway.host[23].wrappedHost.trafficgen  sentDummyPk:vector(packetBytes)  ETV
attr interpolationmode  none
attr source  sentDummyPk
attr title  "dummy packets sent, vector(packetBytes)"
vector 441  Net802154MultiGateway.host[24].wrappedHost.trafficgen  sentDummyPk:vector(packetBytes)  ETV
attr interpolationmode  none
attr source  sentDummyPk
attr title  "dummy packets sent, vector(packetBytes)"
vector 459  Net802154MultiGateway.host[25].wrappedHost.trafficgen  sentDummyPk:vector(packetBytes)  ETV
attr interpolationmode  none
attr source  sentDummyPk
attr title  "dummy packets sent, vector(packetBytes)"
vector 477  Net802154MultiGateway.host[26].wrappedHost.trafficgen  sentDummyPk:vector(packetBytes)  ETV
attr interpolationmode  none
attr source  sentDummyPk
attr title  "dummy packets sent, vector(packetBytes)"
vector 495  Net802154MultiGateway.host[27].wrappedHost.trafficgen  sentDummyPk:vector(packetBytes)  ETV
attr interpolationmode  none
attr source  sentDummyPk
attr title  "dummy packets sent, vector(packetBytes)"
vector 513  Net802154MultiGateway.host[28].wrappedHost.trafficgen  sentDummyPk:vector(packetBytes)  ETV
attr interpolationmode  none
attr source  sentDummyPk
attr title  "dummy packets sent, vector(packetBytes)"
vector 531  Net802154MultiGateway.host[29].wrappedHost.trafficgen  sentDummyPk:vector(packetBytes)  ETV
attr interpolationmode  none
attr source  sentDummyPk
attr title  "dummy packets sent, vector(packetBytes)"
vector 549  Net802154MultiGateway.host[30].wrappedHost.trafficgen  sentDummyPk:vector(packetBytes)  ETV
attr interpolationmode  none
attr source  sentDummyPk
attr title  "dummy packets sent, vector(packetBytes)"
vector 567  Net802154MultiGateway.host[31].wrappedHost.trafficgen  sentDummyPk:vector(packetBytes)  ETV
attr interpolationmode  none
attr source  sentDummyPk
attr title  "dummy packets sent, vector(packetBytes)"
vector 585  Net802154MultiGateway.host[32].wrappedHost.trafficgen  sentDummyPk:vector(packetBytes)  ETV
attr interpolationmode  none
attr source  sentDummyPk
attr title  "dummy packets sent, vector(packetBytes)"
vector 603  Net802154MultiGateway.host[33].wrappedHost.trafficgen  sentDummyPk:vector(packetBytes)  ETV
attr interpolationmode  none
attr source  sentDummyPk
attr title  "dummy packets sent, vector(packetBytes)"
vector 621  Net802154MultiGateway.host[34].wrappedHost.trafficgen  sentDummyPk:vector(packetBytes)  ETV
attr interpolationmode  none
attr source  sentDummyPk
attr title  "dummy packets sent, vector(packetBytes)"
vector 639  Net802154MultiGateway.host[35].wrappedHost.trafficgen  sentDummyPk:vector(packetBytes)  ETV
attr interpolationmode  none
attr source  sentDummyPk
attr title  "dummy packets sent, vector(packetBytes)"
vector 657  Net802154MultiGateway.host[36].wrappedHost.trafficgen  sentDummyPk:vector(packetBytes)  ETV
attr interpolationmode  none
attr source  sentDummyPk
attr title  "dummy packets sent, vector(packetBytes)"
vector 675  Net802154MultiGateway.host[37].wrappedHost.trafficgen  sentDummyPk:vector(packetBytes)  ETV
attr interpolationmode  none
attr source  sentDummyPk
attr title  "dummy packets sent, vector(packetBytes)"
vector 693  Net802154MultiGateway.host[38].wrappedHost.trafficgen  sentDummyPk:vector(packetBytes)  ETV
attr interpolationmode  none
attr source  sentDummyPk
attr title  "dummy packets sent, vector(packetBytes)"
vector 711  Net802154MultiGateway.host[39].wrappedHost.trafficgen  sentDummyPk:vector(packetBytes)  ETV
attr interpolationmode  none
attr source  sentDummyPk
attr title  "dummy packets sent, vector(packetBytes)"
vector 729  Net802154MultiGateway.host[40].wrappedHost.trafficgen  sentDummyPk:vector(packetBytes)  ETV
attr interpolationmode  none
attr source  sentDummyPk
attr title  "dummy packets sent, vector(packetBytes)"
vector 747  Net802154MultiGateway.host[41].wrappedHost.trafficgen  sentDummyPk:vector(packetBytes)  ETV
attr interpolationmode  none
attr source  sentDummyPk
attr title  "dummy packets sent, vector(packetBytes)"
vector 765  Net802154MultiGateway.host[42].wrappedHost.trafficgen  sentDummyPk:vector(packetBytes)  ETV
attr interpolationmode  none
attr source  sentDummyPk
attr title  "dummy packets sent, vector(packetBytes)"
vector 783  Net802154MultiGateway.host[43].wrappedHost.trafficgen  sentDummyPk:vector(packetBytes)  ETV
attr interpolationmode  none
attr source  sentDummyPk
attr title  "dummy packets sent, vector(packetBytes)"
vector 801  Net802154MultiGateway.host[44].wrappedHost.trafficgen  sentDummyPk:vector(packetBytes)  ETV
attr interpolationmode  none
attr source  sentDummyPk
attr title  "dummy packets sent, vector(packetBytes)"
vector 819  Net802154MultiGateway.host[45].wrappedHost.trafficgen  sentDummyPk:vector(packetBytes)  ETV
attr interpolationmode  none
attr source  sentDummyPk
attr title  "dummy packets sent, vector(packetBytes)"
vector 837  Net802154MultiGateway.host[46].wrappedHost.trafficgen  sentDummyPk:vector(packetBytes)  ETV
attr interpolationmode  none
attr source  sentDummyPk
attr title  "dummy packets sent, vector(packetBytes)"
vector 855  Net802154MultiGateway.host[47].wrappedHost.trafficgen  sentDummyPk:vector(packetBytes)  ETV
attr interpolationmode  none
attr source  sentDummyPk
attr title  "dummy packets sent, vector(packetBytes)"
vector 873  Net802154MultiGateway.host[48].wrappedHost.trafficgen  sentDummyPk:vector(packetBytes)  ETV
attr interpolationmode  none
attr source  sentDummyPk
attr title  "dummy packets sent, vector(packetBytes)"
vector 891  Net802154MultiGateway.host[49].wrappedHost.trafficgen  sentDummyPk:vector(packetBytes)  ETV
attr interpolationmode  none
attr source  sentDummyPk
attr title  "dummy packets sent, vector(packetBytes)"
vector 909  Net802154MultiGateway.host[50].wrappedHost.trafficgen  sentDummyPk:vector(packetBytes)  ETV
attr interpolationmode  none
attr source  sentDummyPk
attr title  "dummy packets sent, vector(packetBytes)"
vector 927  Net802154MultiGateway.host[51].wrappedHost.trafficgen  sentDummyPk:vector(packetBytes)  ETV
attr interpolationmode  none
attr source  sentDummyPk
attr title  "dummy packets sent, vector(packetBytes)"
vector 945  Net802154MultiGateway.host[52].wrappedHost.trafficgen  sentDummyPk:vector(packetBytes)  ETV
attr interpolationmode  none
attr source  sentDummyPk
attr title  "dummy packets sent, vector(packetBytes)"
vector 963  Net802154MultiGateway.host[53].wrappedHost.trafficgen  sentDummyPk:vector(packetBytes)  ETV
attr interpolationmode  none
attr source  sentDummyPk
attr title  "dummy packets sent, vector(packetBytes)"
vector 981  Net802154MultiGateway.host[54].wrappedHost.trafficgen  sentDummyPk:vector(packetBytes)  ETV
attr interpolationmode  none
attr source  sentDummyPk
attr title  "dummy packets sent, vector(packetBytes)"
vector 999  Net802154MultiGateway.host[55].wrappedHost.trafficgen  sentDummyPk:vector(packetBytes)  ETV
attr interpolationmode  none
attr source  sentDummyPk
attr title  "dummy packets sent, vector(packetBytes)"
vector 1017  Net802154MultiGateway.host[56].wrappedHost.trafficgen  sentDummyPk:vector(packetBytes)  ETV
attr interpolationmode  none
attr source  sentDummyPk
attr title  "dummy packets sent, vector(packetBytes)"
vector 1035  Net802154MultiGateway.host[57].wrappedHost.trafficgen  sentDummyPk:vector(packetBytes)  ETV
attr interpolationmode  none
attr source  sentDummyPk
attr title  "dummy packets sent, vector(packetBytes)"
vector 1053  Net802154MultiGateway.host[58].wrappedHost.trafficgen  sentDummyPk:vector(packetBytes)  ETV
attr interpolationmode  none
attr source  sentDummyPk
attr title  "dummy packets sent, vector(packetBytes)"
vector 1071  Net802154MultiGateway.host[59].wrappedHost.trafficgen  sentDummyPk:vector(packetBytes)  ETV
attr interpolationmode  none
attr source  sentDummyPk
attr title  "dummy packets sent, vector(packetBytes)"
vector 1089  Net802154MultiGateway.host[60].wrappedHost.trafficgen  sentDummyPk:vector(packetBytes)  ETV
attr interpolationmode  none
attr source  sentDummyPk
attr title  "dummy packets sent, vector(packetBytes)"
vector 1107  Net802154MultiGateway.host[61].wrappedHost.trafficgen  sentDummyPk:vector(packetBytes)  ETV
attr interpolationmode  none
attr source  sentDummyPk
attr title  "dummy packets sent, vector(packetBytes)"
vector 772  Net802154MultiGateway.host[42].wrappedHost.wlan[0].mac  corruptedFrameReceived:vector(packetBytes)  ETV
attr interpolationmode  none
attr source  corruptedFrameReceived
attr title  "corrupted frame received, vector(packetBytes)"
vector 970  Net802154MultiGateway.host[53].wrappedHost.wlan[0].mac  corruptedFrameReceived:vector(packetBytes)  ETV
attr interpolationmode  none
attr source  corruptedFrameReceived
attr title  "corrupted frame received, vector(packetBytes)"
vector 790  Net802154MultiGateway.host[43].wrappedHost.wlan[0].mac  corruptedFrameReceived:vector(packetBytes)  ETV
attr interpolationmode  none
attr source  corruptedFrameReceived
attr title  "corrupted frame received, vector(packetBytes)"
vector 464  Net802154MultiGateway.host[25].wrappedHost.wlan[0].mac  unicastDataSentDown:vector(packetBytes)  ETV
attr interpolationmode  none
attr source  unicastDataSentDown
attr title  "unicast packet sent down of type DATA, vector(packetBytes)"
vector 1076  Net802154MultiGateway.host[59].wrappedHost.wlan[0].mac  unicastDataSentDown:vector(packetBytes)  ETV
attr interpolationmode  none
attr source  unicastDataSentDown
attr title  "unicast packet sent down of type DATA, vector(packetBytes)"
vector 1004  Net802154MultiGateway.host[55].wrappedHost.wlan[0].mac  unicastDataSentDown:vector(packetBytes)  ETV
attr interpolationmode  none
attr source  unicastDataSentDown
attr title  "unicast packet sent down of type DATA, vector(packetBytes)"
vector 914  Net802154MultiGateway.host[50].wrappedHost.wlan[0].mac  unicastDataSentDown:vector(packetBytes)  ETV
attr interpolationmode  none
attr source  unicastDataSentDown
attr title  "unicast packet sent down of type DATA, vector(packetBytes)"
vector 374  Net802154MultiGateway.host[20].wrappedHost.wlan[0].mac  unicastDataSentDown:vector(packetBytes)  ETV
attr interpolationmode  none
attr source  unicastDataSentDown
attr title  "unicast packet sent down of type DATA, vector(packetBytes)"
vector 1022  Net802154MultiGateway.host[56].wrappedHost.wlan[0].mac  unicastDataSentDown:vector(packetBytes)  ETV
attr interpolationmode  none
attr source  unicastDataSentDown
attr title  "unicast packet sent down of type DATA, vector(packetBytes)"
vector 482  Net802154MultiGateway.host[26].wrappedHost.wlan[0].mac  unicastDataSentDown:vector(packetBytes)  ETV
attr interpolationmode  none
attr source  unicastDataSentDown
attr title  "unicast packet sent down of type DATA, vector(packetBytes)"
vector 752  Net802154MultiGateway.host[41].wrappedHost.wlan[0].mac  unicastDataSentDown:vector(packetBytes)  ETV
attr interpolationmode  none
attr source  unicastDataSentDown
attr title  "unicast packet sent down of type DATA, vector(packetBytes)"
vector 86  Net802154MultiGateway.host[4].wrappedHost.wlan[0].mac  unicastDataSentDown:vector(packetBytes)  ETV
attr interpolationmode  none
attr source  unicastDataSentDown
attr title  "unicast packet sent down of type DATA, vector(packetBytes)"
vector 1040  Net802154MultiGateway.host[57].wrappedHost.wlan[0].mac  unicastDataSentDown:vector(packetBytes)  ETV
attr interpolationmode  none
attr source  unicastDataSentDown
attr title  "unicast packet sent down of type DATA, vector(packetBytes)"
vector 392  Net802154MultiGateway.host[21].wrappedHost.wlan[0].mac  unicastDataSentDown:vector(packetBytes)  ETV
attr interpolationmode  none
attr source  unicastDataSentDown
attr title  "unicast packet sent down of type DATA, vector(packetBytes)"
vector 1094  Net802154MultiGateway.host[60].wrappedHost.wlan[0].mac  unicastDataSentDown:vector(packetBytes)  ETV
attr interpolationmode  none
attr source  unicastDataSentDown
attr title  "unicast packet sent down of type DATA, vector(packetBytes)"
vector 104  Net802154MultiGateway.host[5].wrappedHost.wlan[0].mac  unicastDataSentDown:vector(packetBytes)  ETV
attr interpolationmode  none
attr source  unicastDataSentDown
attr title  "unicast packet sent down of type DATA, vector(packetBytes)"
vector 16  Net802154MultiGateway.host[0].wrappedHost.wlan[0].mac  corruptedFrameReceived:vector(packetBytes)  ETV
attr interpolationmode  none
attr source  corruptedFrameReceived
attr title  "corrupted frame received, vector(packetBytes)"
vector 572  Net802154MultiGateway.host[31].wrappedHost.wlan[0].mac  unicastDataSentDown:vector(packetBytes)  ETV
attr interpolationmode  none
attr source  unicastDataSentDown
attr title  "unicast packet sent down of type DATA, vector(packetBytes)"
vector 1112  Net802154MultiGateway.host[61].wrappedHost.wlan[0].mac  unicastDataSentDown:vector(packetBytes)  ETV
attr interpolationmode  none
attr source  unicastDataSentDown
attr title  "unicast packet sent down of type DATA, vector(packetBytes)"
vector 626  Net802154MultiGateway.host[34].wrappedHost.wlan[0].mac  unicastDataSentDown:vector(packetBytes)  ETV
attr interpolationmode  none
attr source  unicastDataSentDown
attr title  "unicast packet sent down of type DATA, vector(packetBytes)"
vector 248  Net802154MultiGateway.host[13].wrappedHost.wlan[0].mac  unicastDataSentDown:vector(packetBytes)  ETV
attr interpolationmode  none
attr source  unicastDataSentDown
attr title  "unicast packet sent down of type DATA, vector(packetBytes)"
vector 410  Net802154MultiGateway.host[22].wrappedHost.wlan[0].mac  unicastDataSentDown:vector(packetBytes)  ETV
attr interpolationmode  none
attr source  unicastDataSentDown
attr title  "unicast packet sent down of type DATA, vector(packetBytes)"
vector 806  Net802154MultiGateway.host[44].wrappedHost.wlan[0].mac  unicastDataSentDown:vector(packetBytes)  ETV
attr interpolationmode  none
attr source  unicastDataSentDown
attr title  "unicast packet sent down of type DATA, vector(packetBytes)"
vector 230  Net802154MultiGateway.host[12].wrappedHost.wlan[0].mac  unicastDataSentDown:vector(packetBytes)  ETV
attr interpolationmode  none
attr source  unicastDataSentDown
attr title  "unicast packet sent down of type DATA, vector(packetBytes)"
vector 428  Net802154MultiGateway.host[23].wrappedHost.wlan[0].mac  unicastDataSentDown:vector(packetBytes)  ETV
attr interpolationmode  none
attr source  unicastDataSentDown
attr title  "unicast packet sent down of type DATA, vector(packetBytes)"
vector 969  Net802154MultiGateway.host[53].wrappedHost.wlan[0].mac  broadDataSentDown:vector(packetBytes)  ETV
attr interpolationmode  none
attr source  broadcastDataSentDown
attr title  "broadcast packet sent down of type DATA, vector(packetBytes)"
vector 789  Net802154MultiGateway.host[43].wrappedHost.wlan[0].mac  broadDataSentDown:vector(packetBytes)  ETV
attr interpolationmode  none
attr source  broadcastDataSentDown
attr title  "broadcast packet sent down of type DATA, vector(packetBytes)"
vector 140  Net802154MultiGateway.host[7].wrappedHost.wlan[0].mac  unicastDataSentDown:vector(packetBytes)  ETV
attr interpolationmode  none
attr source  unicastDataSentDown
attr title  "unicast packet sent down of type DATA, vector(packetBytes)"
vector 554  Net802154MultiGateway.host[30].wrappedHost.wlan[0].mac  unicastDataSentDown:vector(packetBytes)  ETV
attr interpolationmode  none
attr source  unicastDataSentDown
attr title  "unicast packet sent down of type DATA, vector(packetBytes)"
vector 176  Net802154MultiGateway.host[9].wrappedHost.wlan[0].mac  unicastDataSentDown:vector(packetBytes)  ETV
attr interpolationmode  none
attr source  unicastDataSentDown
attr title  "unicast packet sent down of type DATA, vector(packetBytes)"
vector 644  Net802154MultiGateway.host[35].wrappedHost.wlan[0].mac  unicastDataSentDown:vector(packetBytes)  ETV
attr interpolationmode  none
attr source  unicastDataSentDown
attr title  "unicast packet sent down of type DATA, vector(packetBytes)"
vector 68  Net802154MultiGateway.host[3].wrappedHost.wlan[0].mac  unicastDataSentDown:vector(packetBytes)  ETV
attr interpolationmode  none
attr source  unicastDataSentDown
attr title  "unicast packet sent down of type DATA, vector(packetBytes)"
vector 573  Net802154MultiGateway.host[31].wrappedHost.wlan[0].mac  broadDataSentDown:vector(packetBytes)  ETV
attr interpolationmode  none
attr source  broadcastDataSentDown
attr title  "broadcast packet sent down of type DATA, vector(packetBytes)"
vector 950  Net802154MultiGateway.host[52].wrappedHost.wlan[0].mac  unicastDataSentDown:vector(packetBytes)  ETV
attr interpolationmode  none
attr source  unicastDataSentDown
attr title  "unicast packet sent down of type DATA, vector(packetBytes)"
vector 608  Net802154MultiGateway.host[33].wrappedHost.wlan[0].mac  unicastDataSentDown:vector(packetBytes)  ETV
attr interpolationmode  none
attr source  unicastDataSentDown
attr title  "unicast packet sent down of type DATA, vector(packetBytes)"
vector 158  Net802154MultiGateway.host[8].wrappedHost.wlan[0].mac  unicastDataSentDown:vector(packetBytes)  ETV
attr interpolationmode  none
attr source  unicastDataSentDown
attr title  "unicast packet sent down of type DATA, vector(packetBytes)"
vector 590  Net802154MultiGateway.host[32].wrappedHost.wlan[0].mac  unicastDataSentDown:vector(packetBytes)  ETV
attr interpolationmode  none
attr source  unicastDataSentDown
attr title  "unicast packet sent down of type DATA, vector(packetBytes)"
vector 320  Net802154MultiGateway.host[17].wrappedHost.wlan[0].mac  unicastDataSentDown:vector(packetBytes)  ETV
attr interpolationmode  none
attr source  unicastDataSentDown
attr title  "unicast packet sent down of type DATA, vector(packetBytes)"
vector 770  Net802154MultiGateway.host[42].wrappedHost.wlan[0].mac  unicastDataSentDown:vector(packetBytes)  ETV
attr interpolationmode  none
attr source  unicastDataSentDown
attr title  "unicast packet sent down of type DATA, vector(packetBytes)"
vector 32  Net802154MultiGateway.host[1].wrappedHost.wlan[0].mac  unicastDataSentDown:vector(packetBytes)  ETV
attr interpolationmode  none
attr source  unicastDataSentDown
attr title  "unicast packet sent down of type DATA, vector(packetBytes)"
vector 1077  Net802154MultiGateway.host[59].wrappedHost.wlan[0].mac  broadDataSentDown:vector(packetBytes)  ETV
attr interpolationmode  none
attr source  broadcastDataSentDown
attr title  "broadcast packet sent down of type DATA, vector(packetBytes)"
vector 302  Net802154MultiGateway.host[16].wrappedHost.wlan[0].mac  unicastDataSentDown:vector(packetBytes)  ETV
attr interpolationmode  none
attr source  unicastDataSentDown
attr title  "unicast packet sent down of type DATA, vector(packetBytes)"
vector 122  Net802154MultiGateway.host[6].wrappedHost.wlan[0].mac  unicastDataSentDown:vector(packetBytes)  ETV
attr interpolationmode  none
attr source  unicastDataSentDown
attr title  "unicast packet sent down of type DATA, vector(packetBytes)"
vector 284  Net802154MultiGateway.host[15].wrappedHost.wlan[0].mac  unicastDataSentDown:vector(packetBytes)  ETV
attr interpolationmode  none
attr source  unicastDataSentDown
attr title  "unicast packet sent down of type DATA, vector(packetBytes)"
vector 465  Net802154MultiGateway.host[25].wrappedHost.wlan[0].mac  broadDataSentDown:vector(packetBytes)  ETV
attr interpolationmode  none
attr source  broadcastDataSentDown
attr title  "broadcast packet sent down of type DATA, vector(packetBytes)"
vector 861  Net802154MultiGateway.host[47].wrappedHost.wlan[0].mac  broadDataSentDown:vector(packetBytes)  ETV
attr interpolationmode  none
attr source  broadcastDataSentDown
attr title  "broadcast packet sent down of type DATA, vector(packetBytes)"
vector 879  Net802154MultiGateway.host[48].wrappedHost.wlan[0].mac  broadDataSentDown:vector(packetBytes)  ETV
attr interpolationmode  none
attr source  broadcastDataSentDown
attr title  "broadcast packet sent down of type DATA, vector(packetBytes)"
vector 338  Net802154MultiGateway.host[18].wrappedHost.wlan[0].mac  unicastDataSentDown:vector(packetBytes)  ETV
attr interpolationmode  none
attr source  unicastDataSentDown
attr title  "unicast packet sent down of type DATA, vector(packetBytes)"
vector 662  Net802154MultiGateway.host[36].wrappedHost.wlan[0].mac  unicastDataSentDown:vector(packetBytes)  ETV
attr interpolationmode  none
attr source  unicastDataSentDown
attr title  "unicast packet sent down of type DATA, vector(packetBytes)"
vector 518  Net802154MultiGateway.host[28].wrappedHost.wlan[0].mac  unicastDataSentDown:vector(packetBytes)  ETV
attr interpolationmode  none
attr source  unicastDataSentDown
attr title  "unicast packet sent down of type DATA, vector(packetBytes)"
vector 356  Net802154MultiGateway.host[19].wrappedHost.wlan[0].mac  unicastDataSentDown:vector(packetBytes)  ETV
attr interpolationmode  none
attr source  unicastDataSentDown
attr title  "unicast packet sent down of type DATA, vector(packetBytes)"
vector 1058  Net802154MultiGateway.host[58].wrappedHost.wlan[0].mac  unicastDataSentDown:vector(packetBytes)  ETV
attr interpolationmode  none
attr source  unicastDataSentDown
attr title  "unicast packet sent down of type DATA, vector(packetBytes)"
vector 842  Net802154MultiGateway.host[46].wrappedHost.wlan[0].mac  unicastDataSentDown:vector(packetBytes)  ETV
attr interpolationmode  none
attr source  unicastDataSentDown
attr title  "unicast packet sent down of type DATA, vector(packetBytes)"
vector 50  Net802154MultiGateway.host[2].wrappedHost.wlan[0].mac  unicastDataSentDown:vector(packetBytes)  ETV
attr interpolationmode  none
attr source  unicastDataSentDown
attr title  "unicast packet sent down of type DATA, vector(packetBytes)"
vector 860  Net802154MultiGateway.host[47].wrappedHost.wlan[0].mac  unicastDataSentDown:vector(packetBytes)  ETV
attr interpolationmode  none
attr source  unicastDataSentDown
attr title  "unicast packet sent down of type DATA, vector(packetBytes)"
vector 986  Net802154MultiGateway.host[54].wrappedHost.wlan[0].mac  unicastDataSentDown:vector(packetBytes)  ETV
attr interpolationmode  none
attr source  unicastDataSentDown
attr title  "unicast packet sent down of type DATA, vector(packetBytes)"
vector 968  Net802154MultiGateway.host[53].wrappedHost.wlan[0].mac  unicastDataSentDown:vector(packetBytes)  ETV
attr interpolationmode  none
attr source  unicastDataSentDown
attr title  "unicast packet sent down of type DATA, vector(packetBytes)"
vector 266  Net802154MultiGateway.host[14].wrappedHost.wlan[0].mac  unicastDataSentDown:vector(packetBytes)  ETV
attr interpolationmode  none
attr source  unicastDataSentDown
attr title  "unicast packet sent down of type DATA, vector(packetBytes)"
vector 536  Net802154MultiGateway.host[29].wrappedHost.wlan[0].mac  unicastDataSentDown:vector(packetBytes)  ETV
attr interpolationmode  none
attr source  unicastDataSentDown
attr title  "unicast packet sent down of type DATA, vector(packetBytes)"
vector 878  Net802154MultiGateway.host[48].wrappedHost.wlan[0].mac  unicastDataSentDown:vector(packetBytes)  ETV
attr interpolationmode  none
attr source  unicastDataSentDown
attr title  "unicast packet sent down of type DATA, vector(packetBytes)"
vector 212  Net802154MultiGateway.host[11].wrappedHost.wlan[0].mac  unicastDataSentDown:vector(packetBytes)  ETV
attr interpolationmode  none
attr source  unicastDataSentDown
attr title  "unicast packet sent down of type DATA, vector(packetBytes)"
vector 680  Net802154MultiGateway.host[37].wrappedHost.wlan[0].mac  unicastDataSentDown:vector(packetBytes)  ETV
attr interpolationmode  none
attr source  unicastDataSentDown
attr title  "unicast packet sent down of type DATA, vector(packetBytes)"
vector 537  Net802154MultiGateway.host[29].wrappedHost.wlan[0].mac  broadDataSentDown:vector(packetBytes)  ETV
attr interpolationmode  none
attr source  broadcastDataSentDown
attr title  "broadcast packet sent down of type DATA, vector(packetBytes)"
vector 915  Net802154MultiGateway.host[50].wrappedHost.wlan[0].mac  broadDataSentDown:vector(packetBytes)  ETV
attr interpolationmode  none
attr source  broadcastDataSentDown
attr title  "broadcast packet sent down of type DATA, vector(packetBytes)"
vector 807  Net802154MultiGateway.host[44].wrappedHost.wlan[0].mac  broadDataSentDown:vector(packetBytes)  ETV
attr interpolationmode  none
attr source  broadcastDataSentDown
attr title  "broadcast packet sent down of type DATA, vector(packetBytes)"
vector 753  Net802154MultiGateway.host[41].wrappedHost.wlan[0].mac  broadDataSentDown:vector(packetBytes)  ETV
attr interpolationmode  none
attr source  broadcastDataSentDown
attr title  "broadcast packet sent down of type DATA, vector(packetBytes)"
vector 483  Net802154MultiGateway.host[26].wrappedHost.wlan[0].mac  broadDataSentDown:vector(packetBytes)  ETV
attr interpolationmode  none
attr source  broadcastDataSentDown
attr title  "broadcast packet sent down of type DATA, vector(packetBytes)"
vector 446  Net802154MultiGateway.host[24].wrappedHost.wlan[0].mac  unicastDataSentDown:vector(packetBytes)  ETV
attr interpolationmode  none
attr source  unicastDataSentDown
attr title  "unicast packet sent down of type DATA, vector(packetBytes)"
vector 500  Net802154MultiGateway.host[27].wrappedHost.wlan[0].mac  unicastDataSentDown:vector(packetBytes)  ETV
attr interpolationmode  none
attr source  unicastDataSentDown
attr title  "unicast packet sent down of type DATA, vector(packetBytes)"
vector 788  Net802154MultiGateway.host[43].wrappedHost.wlan[0].mac  unicastDataSentDown:vector(packetBytes)  ETV
attr interpolationmode  none
attr source  unicastDataSentDown
attr title  "unicast packet sent down of type DATA, vector(packetBytes)"
vector 249  Net802154MultiGateway.host[13].wrappedHost.wlan[0].mac  broadDataSentDown:vector(packetBytes)  ETV
attr interpolationmode  none
attr source  broadcastDataSentDown
attr title  "broadcast packet sent down of type DATA, vector(packetBytes)"
vector 194  Net802154MultiGateway.host[10].wrappedHost.wlan[0].mac  unicastDataSentDown:vector(packetBytes)  ETV
attr interpolationmode  none
attr source  unicastDataSentDown
attr title  "unicast packet sent down of type DATA, vector(packetBytes)"
vector 447  Net802154MultiGateway.host[24].wrappedHost.wlan[0].mac  broadDataSentDown:vector(packetBytes)  ETV
attr interpolationmode  none
attr source  broadcastDataSentDown
attr title  "broadcast packet sent down of type DATA, vector(packetBytes)"
vector 843  Net802154MultiGateway.host[46].wrappedHost.wlan[0].mac  broadDataSentDown:vector(packetBytes)  ETV
attr interpolationmode  none
attr source  broadcastDataSentDown
attr title  "broadcast packet sent down of type DATA, vector(packetBytes)"
vector 734  Net802154MultiGateway.host[40].wrappedHost.wlan[0].mac  unicastDataSentDown:vector(packetBytes)  ETV
attr interpolationmode  none
attr source  unicastDataSentDown
attr title  "unicast packet sent down of type DATA, vector(packetBytes)"
vector 519  Net802154MultiGateway.host[28].wrappedHost.wlan[0].mac  broadDataSentDown:vector(packetBytes)  ETV
attr interpolationmode  none
attr source  broadcastDataSentDown
attr title  "broadcast packet sent down of type DATA, vector(packetBytes)"
vector 1023  Net802154MultiGateway.host[56].wrappedHost.wlan[0].mac  broadDataSentDown:vector(packetBytes)  ETV
attr interpolationmode  none
attr source  broadcastDataSentDown
attr title  "broadcast packet sent down of type DATA, vector(packetBytes)"
vector 735  Net802154MultiGateway.host[40].wrappedHost.wlan[0].mac  broadDataSentDown:vector(packetBytes)  ETV
attr interpolationmode  none
attr source  broadcastDataSentDown
attr title  "broadcast packet sent down of type DATA, vector(packetBytes)"
vector 932  Net802154MultiGateway.host[51].wrappedHost.wlan[0].mac  unicastDataSentDown:vector(packetBytes)  ETV
attr interpolationmode  none
attr source  unicastDataSentDown
attr title  "unicast packet sent down of type DATA, vector(packetBytes)"
vector 357  Net802154MultiGateway.host[19].wrappedHost.wlan[0].mac  broadDataSentDown:vector(packetBytes)  ETV
attr interpolationmode  none
attr source  broadcastDataSentDown
attr title  "broadcast packet sent down of type DATA, vector(packetBytes)"
vector 716  Net802154MultiGateway.host[39].wrappedHost.wlan[0].mac  unicastDataSentDown:vector(packetBytes)  ETV
attr interpolationmode  none
attr source  unicastDataSentDown
attr title  "unicast packet sent down of type DATA, vector(packetBytes)"
vector 824  Net802154MultiGateway.host[45].wrappedHost.wlan[0].mac  unicastDataSentDown:vector(packetBytes)  ETV
attr interpolationmode  none
attr source  unicastDataSentDown
attr title  "unicast packet sent down of type DATA, vector(packetBytes)"
vector 896  Net802154MultiGateway.host[49].wrappedHost.wlan[0].mac  unicastDataSentDown:vector(packetBytes)  ETV
attr interpolationmode  none
attr source  unicastDataSentDown
attr title  "unicast packet sent down of type DATA, vector(packetBytes)"
vector 698  Net802154MultiGateway.host[38].wrappedHost.wlan[0].mac  unicastDataSentDown:vector(packetBytes)  ETV
attr interpolationmode  none
attr source  unicastDataSentDown
attr title  "unicast packet sent down of type DATA, vector(packetBytes)"
vector 897  Net802154MultiGateway.host[49].wrappedHost.wlan[0].mac  broadDataSentDown:vector(packetBytes)  ETV
attr interpolationmode  none
attr source  broadcastDataSentDown
attr title  "broadcast packet sent down of type DATA, vector(packetBytes)"
vector 717  Net802154MultiGateway.host[39].wrappedHost.wlan[0].mac  broadDataSentDown:vector(packetBytes)  ETV
attr interpolationmode  none
attr source  broadcastDataSentDown
attr title  "broadcast packet sent down of type DATA, vector(packetBytes)"
vector 825  Net802154MultiGateway.host[45].wrappedHost.wlan[0].mac  broadDataSentDown:vector(packetBytes)  ETV
attr interpolationmode  none
attr source  broadcastDataSentDown
attr title  "broadcast packet sent down of type DATA, vector(packetBytes)"
vector 699  Net802154MultiGateway.host[38].wrappedHost.wlan[0].mac  broadDataSentDown:vector(packetBytes)  ETV
attr interpolationmode  none
attr source  broadcastDataSentDown
attr title  "broadcast packet sent down of type DATA, vector(packetBytes)"
vector 501  Net802154MultiGateway.host[27].wrappedHost.wlan[0].mac  broadDataSentDown:vector(packetBytes)  ETV
attr interpolationmode  none
attr source  broadcastDataSentDown
attr title  "broadcast packet sent down of type DATA, vector(packetBytes)"
vector 718  Net802154MultiGateway.host[39].wrappedHost.wlan[0].mac  corruptedFrameReceived:vector(packetBytes)  ETV
attr interpolationmode  none
attr source  corruptedFrameReceived
attr title  "corrupted frame received, vector(packetBytes)"
vector 888  Net802154MultiGateway.host[49].wrappedHost.trafficgen  sentPk:vector(packetBytes)  ETV
attr interpolationmode  none
attr source  sentPk
attr title  "packets sent, vector(packetBytes)"
vector 892  Net802154MultiGateway.host[49].wrappedHost.trafficgen  PRR:vector  ETV
attr interpolationmode  none
attr source  count(sinkRcvdPk)/count(sentPk)
attr title  "PRR, vector"
vector 546  Net802154MultiGateway.host[30].wrappedHost.trafficgen  sentPk:vector(packetBytes)  ETV
attr interpolationmode  none
attr source  sentPk
attr title  "packets sent, vector(packetBytes)"
vector 550  Net802154MultiGateway.host[30].wrappedHost.trafficgen  PRR:vector  ETV
attr interpolationmode  none
attr source  count(sinkRcvdPk)/count(sentPk)
attr title  "PRR, vector"
vector 186  Net802154MultiGateway.host[10].wrappedHost.trafficgen  sentPk:vector(packetBytes)  ETV
attr interpolationmode  none
attr source  sentPk
attr title  "packets sent, vector(packetBytes)"
vector 190  Net802154MultiGateway.host[10].wrappedHost.trafficgen  PRR:vector  ETV
attr interpolationmode  none
attr source  count(sinkRcvdPk)/count(sentPk)
attr title  "PRR, vector"
vector 744  Net802154MultiGateway.host[41].wrappedHost.trafficgen  sentPk:vector(packetBytes)  ETV
attr interpolationmode  none
attr source  sentPk
attr title  "packets sent, vector(packetBytes)"
vector 748  Net802154MultiGateway.host[41].wrappedHost.trafficgen  PRR:vector  ETV
attr interpolationmode  none
attr source  count(sinkRcvdPk)/count(sentPk)
attr title  "PRR, vector"
vector 42  Net802154MultiGateway.host[2].wrappedHost.trafficgen  sentPk:vector(packetBytes)  ETV
attr interpolationmode  none
attr source  sentPk
attr title  "packets sent, vector(packetBytes)"
vector 46  Net802154MultiGateway.host[2].wrappedHost.trafficgen  PRR:vector  ETV
attr interpolationmode  none
attr source  count(sinkRcvdPk)/count(sentPk)
attr title  "PRR, vector"
vector 96  Net802154MultiGateway.host[5].wrappedHost.trafficgen  sentPk:vector(packetBytes)  ETV
attr interpolationmode  none
attr source  sentPk
attr title  "packets sent, vector(packetBytes)"
vector 100  Net802154MultiGateway.host[5].wrappedHost.trafficgen  PRR:vector  ETV
attr interpolationmode  none
attr source  count(sinkRcvdPk)/count(sentPk)
attr title  "PRR, vector"
vector 204  Net802154MultiGateway.host[11].wrappedHost.trafficgen  sentPk:vector(packetBytes)  ETV
attr interpolationmode  none
attr source  sentPk
attr title  "packets sent, vector(packetBytes)"
vector 208  Net802154MultiGateway.host[11].wrappedHost.trafficgen  PRR:vector  ETV
attr interpolationmode  none
attr source  count(sinkRcvdPk)/count(sentPk)
attr title  "PRR, vector"
vector 582  Net802154MultiGateway.host[32].wrappedHost.trafficgen  sentPk:vector(packetBytes)  ETV
attr interpolationmode  none
attr source  sentPk
attr title  "packets sent, vector(packetBytes)"
vector 586  Net802154MultiGateway.host[32].wrappedHost.trafficgen  PRR:vector  ETV
attr interpolationmode  none
attr source  count(sinkRcvdPk)/count(sentPk)
attr title  "PRR, vector"
vector 294  Net802154MultiGateway.host[16].wrappedHost.trafficgen  sentPk:vector(packetBytes)  ETV
attr interpolationmode  none
attr source  sentPk
attr title  "packets sent, vector(packetBytes)"
vector 298  Net802154MultiGateway.host[16].wrappedHost.trafficgen  PRR:vector  ETV
attr interpolationmode  none
attr source  count(sinkRcvdPk)/count(sentPk)
attr title  "PRR, vector"
vector 816  Net802154MultiGateway.host[45].wrappedHost.trafficgen  sentPk:vector(packetBytes)  ETV
attr interpolationmode  none
attr source  sentPk
attr title  "packets sent, vector(packetBytes)"
vector 820  Net802154MultiGateway.host[45].wrappedHost.trafficgen  PRR:vector  ETV
attr interpolationmode  none
attr source  count(sinkRcvdPk)/count(sentPk)
attr title  "PRR, vector"
vector 420  Net802154MultiGateway.host[23].wrappedHost.trafficgen  sentPk:vector(packetBytes)  ETV
attr interpolationmode  none
attr source  sentPk
attr title  "packets sent, vector(packetBytes)"
vector 424  Net802154MultiGateway.host[23].wrappedHost.trafficgen  PRR:vector  ETV
attr interpolationmode  none
attr source  count(sinkRcvdPk)/count(sentPk)
attr title  "PRR, vector"
vector 402  Net802154MultiGateway.host[22].wrappedHost.trafficgen  sentPk:vector(packetBytes)  ETV
attr interpolationmode  none
attr source  sentPk
attr title  "packets sent, vector(packetBytes)"
vector 406  Net802154MultiGateway.host[22].wrappedHost.trafficgen  PRR:vector  ETV
attr interpolationmode  none
attr source  count(sinkRcvdPk)/count(sentPk)
attr title  "PRR, vector"
vector 206  Net802154MultiGateway.host[11].wrappedHost.trafficgen  sinkRcvdPk:vector(packetBytes)  ETV
attr interpolationmode  none
attr source  sinkRcvdPk
attr title  "own packets received by sink, vector(packetBytes)"
vector 5  Net802154MultiGateway.host[0].wrappedHost.trafficgen  rcvdPk:vector(packetBytes)  ETV
attr interpolationmode  none
attr source  rcvdPk
attr title  "packets received, vector(packetBytes)"
[...]
590	10238373 10984 555247 10720443 31.04256 471.69024 429 120 120 51480 6177600
591	10249357 1173 431147 10710476 24.981344 471.253216 46 29 29 1334 38686
592	10250530 1734 263572 10470941 15.504096437934 460.691936799739 56 5 34 1517 47887
593	10252264 146234 129914 10728814 7.754688362697 472.034192347537 4632 5 120 153017 9276687
600	10398498 3190 4941409 9462979 221.023643458163 416.715606936626 100 76 76 7600 577600
602	10401688 3200 4972603 9496249 222.411152333564 418.151312333564 100 76 76 7600 577600
603	10404888 3961 518200 10729893 30 472.077837111651 126 76 76 9576 727776
604	10408849 8066 4941409 9496249 221.023643458163 418.151312333564 200 0.5 1 -nan -nan
608	10416915 16509 552146 10732949 30.912 472.19712 645 120 120 77400 9288000
609	10433424 1201 233333 10699044 13.799472 470.802832 47 29 29 1363 39527
610	10434625 10220 129863 10716120 7.753408437934 471.506496534138 322 5 120 9578 305870
611	10444845 143137 129915 10733104 7.754688362697 472.201696725394 4517 5 120 161670 11144936
618	10587982 3185 4951487 10012250 221.485398843472 440.576453572982 100 76 76 7600 577600
620	10591167 3202 4984492 10076132 222.902672333564 443.218832333564 100 76 76 7600 577600
621	10594369 3234 518201 10705264 30 471.03656876646 103 76 76 7828 594928
622	10597603 7950 4951487 10076132 221.485398843472 443.218832333564 200 0.28571428571429 1 -nan -nan
626	10605553 10593 542386 10711916 30.54336 471.3216 414 120 120 49680 5961600
627	10616146 1176 362955 10713564 21.144192 471.398448 46 29 29 1334 38686
628	10617322 23526 129923 10731956 7.754688538651 472.171344538651 739 5 120 35016 2712876
629	10640848 145645 129856 10727354 7.753408333564 471.983200538651 4600 5 120 160983 10864023
636	10786493 3194 4974575 9796909 222.496524200486 431.294740891325 100 76 76 7600 577600
638	10789687 3199 4998065 9823721 223.470992333564 432.405392333564 100 76 76 7600 577600
639	10792886 3397 518202 10723295 30 471.818807421105 108 76 76 8208 623808
640	10796283 8129 4974575 9823721 222.496524200486 432.405392333564 200 0.5 1 -nan -nan
644	10804412 11466 548859 10699947 30.78912 470.83776 448 120 120 53760 6451200
645	10815878 1178 371694 10684789 21.655984 470.18968 46 29 29 1334 38686
646	10817056 14600 148461 10732788 8.858688611071 472.193472611071 458 5 120 16516 903966
647	10831656 135742 129864 10732835 7.753408437934 472.194016699687 4286 5 120 143589 8968167
654	10967398 3189 4944353 10028119 221.154060915842 441.202985201211 100 76 76 7600 577600
656	10970587 3202 4967098 10058009 222.157712333564 442.450832333564 100 76 76 7600 577600
657	10973789 3363 518203 10604216 30 466.614885358425 107 76 76 8132 618032
658	10977152 7941 4944353 10058009 221.154060915842 442.450832333564 200 0.5 1 -nan -nan
662	10985093 15970 567976 10732951 31.54176 472.19712 624 120 120 74880 8985600
663	11001063 1151 420689 10458305 24.39432 460.107552 45 29 29 1305 37845
664	11002214 15805 302274 10707430 17.709568572016 471.123040572016 497 5 120 17187 853063
665	11018019 136170 148457 10733769 8.85868835215 472.228960521831 4324 5 120 148447 9868715
672	11154189 3193 4976373 9004720 222.574147724611 397.109863617416 100 76 76 7600 577600
674	11157382 3200 5001871 9032533 223.632272333564 398.359952333564 100 76 76 7600 577600
675	11160582 4261 518204 10733383 30 472.214041905915 135 76 76 10260 779760
676	11164843 8154 4976373 9032533 222.574147724611 398.359952333564 200 0.5 1 -nan -nan
680	11172997 5913 592916 10702014 32.53248 470.94528 230 120 120 27600 3312000
681	11178910 1149 429317 10566037 24.876144 464.918064 45 29 29 1305 37845
682	11180059 18628 282758 10723246 16.603648521831 471.817152521831 579 5 120 36460 3405842
683	11198687 89544 129801 10732851 7.752448334453 472.194016873981 2830 5 120 83807 4232533
690	11288231 3193 4934673 9456286 220.732240617441 416.441208612548 100 76 76 7600 577600
692	11291424 3200 4952786 9515452 221.535632333564 418.996112333564 100 76 76 7600 577600
693	11294624 4258 518205 10724208 30 471.861802872957 135 76 76 10260 779760
694	11298882 8019 4934673 9515452 220.732240617441 418.996112333564 200 0.33333333333333 1 -nan -nan
698	11306901 5914 757009 10489162 39.02208 461.49888 231 120 120 27720 3326400
699	11312815 1100 863233 10490584 43.555968 461.5736 43 29 29 1247 36163
700	11313915 16040 321373 10728187 18.812800611071 472.011104611071 505 5 120 14307 442981
701	11329955 77725 204696 10733730 12.176448334453 472.228960334453 2497 5 120 85132 5253178
708	11407680 3185 5081871 9554049 227.157484526895 420.648819566757 100 76 76 7600 577600
710	11410865 3200 5113190 9584133 228.547472333564 421.937552333564 100 76 76 7600 577600
711	11414065 3601 518206 10586977 30 465.856979075787 114 76 76 8664 658464
712	11417666 8246 5081871 9584133 227.157484526895 421.937552333564 200 0.5 1 -nan -nan
716	11425912 5447 664158 10596329 35.2128 466.27584 212 120 120 25440 3052800
717	11431359 1133 813500 10713747 41.42328 471.40776 44 29 29 1276 37004
718	11432492 159 2479036 10405192 113.683264334453 457.661248334453 5 5 34 110 3386
719	11432651 76974 129802 10728181 7.752448334453 472.011104402643 2425 5 120 84741 5291903
726	11509625 3190 4935978 9183548 220.791373478954 404.914474360929 100 76 76 7600 577600
728	11512815 3200 4950115 9234968 221.412752333564 407.061392333564 100 76 76 7600 577600
729	11516015 3694 518207 10727088 30 471.975913617671 117 76 76 8892 675792
730	11519709 8135 4935978 9234968 220.791373478954 407.061392333564 200 0.5 1 -nan -nan
734	11527844 5461 641418 10699452 34.35264 470.8224 213 120 120 25560 3067200
735	11533305 1130 651769 10461191 34.693392 460.22656 44 29 29 1276 37004
736	11534435 28302 282760 10727771 16.603648572016 471.998512572016 883 5 120 47062 3998088
737	11562737 60067 185997 10733761 11.071168474592 472.228960474592 1907 5 120 47322 1672464
744	11622804 3191 4927302 9143745 220.408690588546 403.220833055523 100 76 76 7600 577600
746	11625995 3200 4946857 9179120 221.274512333564 404.726672333564 100 76 76 7600 577600
747	11629195 3982 518208 10674915 30 469.76108152452 126 76 76 9576 727776
748	11633177 8241 4927302 9179120 220.408690588546 404.726672333564 200 0.33333333333333 1 -nan -nan
752	11641418 5781 525100 10682212 30.05184 470.08512 226 120 120 27120 3254400
753	11647199 1127 603702 10551026 32.996992 464.272736 44 29 29 1276 37004
754	11648326 17252 321371 10724207 18.812800486069 471.860320559244 544 5 120 16988 653332
755	11665578 71575 185989 10733733 11.071168337057 472.228960337057 2269 5 120 57033 1906017
762	11737153 3188 4975961 9368948 222.555215906242 412.77365062839 100 76 76 7600 577600
764	11740341 3200 4992378 9413333 223.248272333564 414.580112333564 100 76 76 7600 577600
765	11743541 3730 518209 10719930 30 471.676374828282 118 76 76 8968 681568
766	11747271 8131 4975961 9413333 222.555215906242 414.580112333564 200 0.5 1 -nan -nan
770	11755402 5589 555560 10725512 31.05024 471.92832 218 120 120 26160 3139200
771	11760991 1152 431321 10531746 24.98976 463.407168 45 29 29 1305 37845
772	11762143 90 519018 1995757 30.004912728117 92.541632411848 3 5 34 73 2337
773	11762233 69443 111352 10733757 6.648768334453 472.228960411848 2205 5 120 55695 1790551
780	11831676 3193 4984200 9975667 222.888953997296 439.047727763816 100 76 76 7600 577600
782	11834869 3200 5016092 9989685 224.231312333564 439.647632333564 100 76 76 7600 577600
783	11838069 4101 518210 10711624 30 471.316258580778 130 76 76 9880 750880
784	11842170 8123 4984200 9989685 222.888953997296 439.647632333564 200 0.5 1 -nan -nan
788	11850293 5897 620538 10720001 33.61536 471.68256 230 120 120 27600 3312000
789	11856190 1154 544809 10728389 30.624912 472.016288 45 29 29 1305 37845
790	11857344 123 522500 5704684 30.028480334453 254.258240431439 4 5 34 105 3361
791	11857467 60127 148424 10725755 8.858368334453 471.932896728117 1905 5 120 58382 3306998
798	11917594 3190 5001829 10031418 223.62687257791 441.329830347679 100 76 76 7600 577600
800	11920784 3202 5036208 10055167 225.091472333564 442.320272333564 100 76 76 7600 577600
801	11923986 3484 518211 10723780 30 471.84102326173 111 76 76 8436 641136
802	11927470 8139 5001829 10055167 223.62687257791 442.320272333564 200 0.5 1 -nan -nan
806	11935609 5363 542406 10722825 30.54336 471.80544 210 120 120 25200 3024000
807	11940972 1152 598089 10685088 32.745808 470.20544 45 29 29 1305 37845
808	11942124 13426 321548 10724205 18.815616534138 471.860320534138 422 5 120 15707 860241
809	11955550 79914 111353 10733765 6.648768334453 472.228960509706 2525 5 120 76291 3940439
816	12035464 3195 4930419 8783233 220.536959392159 387.434172224134 100 76 76 7600 577600
818	12038659 3200 4944426 8797591 221.159312333564 388.045712333564 100 76 76 7600 577600
819	12041859 3810 518212 10658805 30 469.03691286407 121 76 76 9196 698896
820	12045669 8258 4930419 8797591 220.536959392159 388.045712333564 200 0.5 1 -nan -nan
824	12053927 5619 676127 10665626 35.712 469.35552 219 120 120 26280 3153600
825	12059546 1100 817797 10464153 41.575152 460.374928 43 29 29 1247 36163
826	12060646 15401 380109 10730922 22.13068859794 472.12025659794 500 5 120 14247 461367
827	12076047 54886 111309 10733737 6.647168334453 472.228960347319 1745 5 120 57915 3666583
834	12130933 3191 4971640 9381550 222.36996688039 413.277120871142 100 76 76 7600 577600
836	12134124 3200 5018431 9459059 224.331152333564 416.553872333564 100 76 76 7600 577600
837	12137324 4116 518213 10615409 30 467.106764692255 131 76 76 9956 756656
838	12141440 8202 4971640 9459059 222.36996688039 416.553872333564 200 0.33333333333333 1 -nan -nan
842	12149642 5846 573424 10621447 31.77216 467.38176 228 120 120 27360 3283200
843	12155488 1133 629524 10471739 33.956688 460.72672 44 29 29 1276 37004
844	12156621 32 9093827 9093827 401.122160334453 401.122160334453 1 29 29 29 841
845	12156653 69164 243437 10733753 14.388928334453 472.228960385565 2193 5 120 65462 3245684
852	12225817 3204 5003267 10396009 223.697160190324 457.232265188571 100 76 76 7600 577600
854	12229021 3211 5038394 10430943 225.198992333564 458.824592333564 100 76 76 7600 577600
855	12232232 3240 518214 10719800 30 471.670037682428 103 76 76 7828 594928
856	12235472 8137 5003267 10430943 223.697160190324 458.824592333564 200 0.33333333333333 1 -nan -nan
860	12243609 5149 579156 10725476 32.01792 471.92832 201 120 120 24120 2894400
861	12248758 1149 566554 10728104 31.499104 472.005136 45 29 29 1305 37845
862	12249907 19913 360608 10704730 21.030976584919 471.018240584919 626 5 120 22281 1196373
863	12269820 54190 74351 10733778 4.435648463368 472.228960584919 1713 5 120 47520 2204682
870	12324010 3188 4940531 9659194 220.987414996265 425.254732635761 100 76 76 7600 577600
872	12327198 3200 4953085 9687007 221.550992333564 426.468752333564 100 76 76 7600 577600
873	12330398 4285 518215 10675379 30 469.780296109326 136 76 76 10336 785536
874	12334683 8086 4940531 9687007 220.987414996265 426.468752333564 200 0.25 1 -nan -nan
878	12342769 5969 592205 10685174 32.51712 470.208 233 120 120 27960 3355200
879	12348738 1120 566796 10515158 31.507456 462.680176 44 29 29 1276 37004
880	12349858 9543 399909 10713288 23.238528546614 471.385536546614 302 5 120 10787 583647
881	12359401 50304 74339 10730998 4.435648335121 472.124160334453 1608 5 120 43138 2028048
888	12409705 3191 4918911 9956119 220.049678341431 438.178895483536 100 76 76 7600 577600
890	12412896 3200 4963813 9993192 222.011792333564 439.785872333564 100 76 76 7600 577600
891	12416096 3551 518216 10689096 30 470.38440975185 113 76 76 8588 652688
892	12419647 8167 4918911 9993192 220.049678341431 439.785872333564 200 0.25 1 -nan -nan
896	12427814 5374 713712 10701998 37.30176 470.94528 210 120 120 25200 3024000
897	12433188 1124 782409 10728634 40.108208 472.027536 44 29 29 1276 37004
899	12434312 54948 74347 10718780 4.435648421456 471.614560334453 1759 5 120 49796 2304534
906	12489260 3183 5007459 9642278 223.85305917926 424.511194705961 100 76 76 7600 577600
908	12492443 3200 5050299 9688282 225.713552333564 426.514832333564 100 76 76 7600 577600
909	12495643 3557 518217 10609578 30 466.839286412041 113 76 76 8588 652688
910	12499200 8287 5007459 9688282 223.85305917926 426.514832333564 200 0.5 1 -nan -nan
914	12507487 5450 525072 10619014 30.05184 467.26656 213 120 120 25560 3067200
915	12512937 1126 593797 10542435 32.574064 463.897056 44 29 29 1276 37004
917	12514063 59199 92790 10730637 5.540928421456 472.106080421456 1894 5 120 51087 2140397
924	12573262 3194 4937251 10181043 220.841867011997 447.822214524638 100 76 76 7600 577600
926	12576456 3205 4975014 10223972 222.510992333564 449.723792333564 100 76 76 7600 577600
927	12579661 2720 518218 10639728 30 468.194676799328 87 76 76 6612 502512
928	12582381 8227 4937251 10223972 220.841867011997 449.723792333564 200 0.5 1 -nan -nan
932	12590608 4760 652737 10640587 34.72896 468.24192 186 120 120 22320 2678400
933	12595368 1153 398158 10494317 23.152768 461.723504 45 29 29 1305 37845
934	12596521 8972 167060 10713289 9.964288546614 471.385536546614 284 5 120 9737 436605
935	12605493 64036 92782 10733763 5.540928335121 472.22896049778 2042 5 120 53769 2025871
942	12669529 3191 5062192 9693721 226.265074889362 426.765340997596 100 76 76 7600 577600
944	12672720 3200 5094029 9758646 227.687312333564 429.686672333564 100 76 76 7600 577600
945	12675920 3945 518219 10720703 30 471.697362174883 125 76 76 9500 722000
946	12679865 7980 5062192 9758646 226.265074889362 429.686672333564 200 0.5 1 -nan -nan
950	12687845 5765 552123 10732084 30.912 472.17408 225 120 120 27000 3240000
951	12693610 1152 384638 10499045 22.375184 461.924304 45 29 29 1305 37845
952	12694762 14346 186051 10728829 11.072448584919 472.034192584919 452 5 120 14420 626340
953	12709108 66583 92794 10733735 5.540928463368 472.228960343176 2110 5 120 56727 2377005
960	12775691 3189 5042786 10053419 225.3869851851 442.250844998197 100 76 76 7600 577600
962	12778880 3201 5071892 10087353 226.704272333564 443.702672333564 100 76 76 7600 577600
963	12782081 3913 518220 10705761 30 471.059123246447 124 76 76 9424 716224
964	12785994 8173 5042786 10087353 225.3869851851 443.702672333564 200 0.5 1 -nan -nan
968	12794167 5720 583118 10711464 32.14848 471.31392 223 120 120 26760 3211200
969	12799887 1133 544598 10558998 30.621232 464.632176 44 29 29 1276 37004
970	12801020 151 520176 4494002 30.011664334453 201.169536334453 5 5 34 137 4385
971	12801171 63101 186043 10733755 11.072448385565 472.228960393872 2005 5 120 58905 2898341
978	12864272 3192 5138024 9389875 229.672174292562 413.623605192758 100 76 76 7600 577600
980	12867464 3200 5163242 9443846 230.759312333564 415.916432333564 100 76 76 7600 577600
981	12870664 3662 518221 10717195 30 471.550675882314 116 76 76 8816 670016
982	12874326 8291 5138024 9443846 229.672174292562 415.916432333564 200 0.25 1 -nan -nan
986	12882617 5531 582691 10717394 32.1408 471.55968 215 120 120 25800 3096000
987	12888148 1179 417996 10693135 24.250688 470.539744 46 29 29 1334 38686
988	12889327 16230 263499 10733780 15.50227259794 472.22896059794 527 5 120 16641 717081
989	12905557 66938 148472 10728809 8.859328334453 472.034192347319 2134 5 120 63530 3272506
996	12972495 3194 4939735 9257547 220.945911401854 408.032460040054 100 76 76 7600 577600
998	12975689 3200 4961247 9280741 221.911952333564 409.035152333564 100 76 76 7600 577600
999	12978889 4333 518222 10625258 30 467.542127103637 137 76 76 10412 791312
1000	12983222 8420 4939735 9280741 220.945911401854 409.035152333564 200 0.5 1 -nan -nan
1004	12991642 6310 525069 10629693 30.05184 467.7504 237 120 120 28440 3412800
1005	12997952 1196 402433 10499813 23.360128 461.962384 45 29 29 1305 37845
1006	12999148 15648 224266 10728821 13.291584896835 472.034192509706 474 5 120 24466 1980730
1007	13014796 80857 186045 10716182 11.072448509706 471.509120333954 2481 5 120 67059 2811731
1014	13095653 3287 4945171 9520086 221.192867888914 419.21158927379 100 76 76 7600 577600
1016	13098940 3300 5003998 9541350 223.716752333564 420.117392333564 100 76 76 7600 577600
1017	13102240 3510 518223 10727360 30 471.984087559911 108 76 76 8208 623808
1018	13105750 8366 4945171 9541350 221.192867888914 420.117392333564 200 0.33333333333333 1 -nan -nan
1022	13114116 5507 525085 10654690 30.05184 468.85632 207 120 120 24840 2980800
1023	13119623 1200 648318 10681982 34.561488 470.074512 45 29 29 1305 37845
1024	13120823 129 263304 6704750 15.498592431439 298.001408431439 4 27 34 125 3933
1025	13120952 85872 129879 10721622 7.753728334453 471.737440334453 2628 5 120 78431 3692875
1032	13206824 3291 4972396 9127598 222.398549998961 402.510370387292 100 76 76 7600 577600
1034	13210115 3300 5019004 9136934 224.346512333564 402.914192333564 100 76 76 7600 577600
1035	13213415 3632 518224 10721468 30 471.733756709153 112 76 76 8512 646912
1036	13217047 8364 4972396 9136934 222.398549998961 402.914192333564 200 0.25 1 -nan -nan
1040	13225411 5637 525601 10725480 30.05952 471.92832 212 120 120 25440 3052800
1041	13231048 1225 355989 10687565 20.783088 470.316704 46 29 29 1334 38686
1042	13232273 67 7975349 10514585 353.052480411848 462.659200411848 2 32 34 66 2180
1043	13232340 69367 223737 10725967 13.282240411848 471.940032370476 2127 5 120 64499 3331291
1050	13301707 3293 4989518 9513170 223.114294601134 418.900877166415 100 76 76 7600 577600
1052	13305000 3300 5027004 9537392 224.699792333564 419.956112333564 100 76 76 7600 577600
1053	13308300 3612 518225 10664404 30 469.290348538889 111 76 76 8436 641136
1054	13311912 8434 4989518 9537392 223.114294601134 419.956112333564 200 0.33333333333333 1 -nan -nan
1058	13320346 5620 573422 10676510 31.77216 469.83936 211 120 120 25320 3038400
1059	13325966 1189 360129 10499224 21.02336 461.93528 45 29 29 1305 37845
1060	13327155 22653 224183 10715726 13.289216559244 471.491680559244 688 5 120 31690 2309722
1061	13349808 75107 129880 10721623 7.753728334453 471.737440334453 2303 5 120 64535 2973327
1068	13424915 3288 4989708 8788861 223.122797891447 387.671114108162 100 76 76 7600 577600
1070	13428203 3300 5030386 8820074 224.838032333564 389.036432333564 100 76 76 7600 577600
1071	13431503 4615 518226 10647414 30 468.542783007726 142 76 76 10792 820192
1072	13436118 8483 4989708 8820074 223.122797891447 389.036432333564 200 0.33333333333333 1 -nan -nan
1076	13444601 6400 525065 10477497 30.05184 460.992 241 120 120 28920 3470400
1077	13451001 1170 560686 10543214 31.250672 463.925968 44 29 29 1276 37004
1078	13452171 23025 282472 10696971 16.600000572016 470.704096949772 704 5 120 24484 1298848
1079	13475196 56547 186005 10732853 11.071488339748 472.194016924166 1741 5 120 43925 1851683
1086	13531743 3286 5027415 10230859 224.712665959538 450.031767405149 100 76 76 7600 577600
1088	13535029 3307 5055658 10276805 225.959312333564 452.035472333564 100 76 76 7600 577600
1089	13538336 3507 518227 10686259 30 470.253020095093 108 76 76 8208 623808
1090	13541843 8251 5027415 10276805 224.712665959538 452.035472333564 200 0.5 1 -nan -nan
1094	13550094 5555 525608 10708658 30.05952 471.19104 208 120 120 24960 2995200
1095	13555649 1225 365261 10687287 21.28104 470.300752 46 29 29 1334 38686
1096	13556874 34 10317553 10317553 453.812096334453 453.812096334453 1 32 32 32 1024
1097	13556908 77785 148455 10732840 8.858688334453 472.194016729906 2385 5 120 74070 4070908
1104	13634693 3287 4933848 9534259 220.698468841771 419.85002545265 100 76 76 7600 577600
1106	13637980 3300 4960439 9552729 221.881232333564 420.593552333564 100 76 76 7600 577600
1107	13641280 3501 518228 10727160 30 471.980008057738 108 76 76 8208 623808
1108	13644781 8103 4933848 9552729 220.698468841771 420.593552333564 200 0.5 1 -nan -nan
1112	13652884 5519 542362 10732704 30.54336 472.18944 208 120 120 24960 2995200
1113	13658403 1200 356448 10562523 20.806384 464.7764 45 29 29 1305 37845
1114	13659603 9756 186019 10684823 11.071488611071 470.190800611071 299 5 120 10262 604562
1115	13669359 77722 223766 10733731 13.282368334453 472.228960334453 2423 5 120 71197 3464931
