file 9641090 1474031378                                         
version 2
run DSME-0-20160916-13:06:14-14502
attr beaconInterval 10s
attr configname DSME
attr datetime 20160916-13:06:14
attr experiment DSME
attr inifile simulations/omnetpp.ini
attr iterationvars "$packetLength=76B, $sendInt=2, $beaconInterval=10s, $0=10s/2, $1=3 * 10s"
attr iterationvars2 "$packetLength=76B, $sendInt=2, $beaconInterval=10s, $0=10s/2, $1=3 * 10s, $repetition=0"
attr measurement "$packetLength=76B, $sendInt=2, $beaconInterval=10s, $0=10s/2, $1=3 * 10s"
attr network multi_gateway.Net802154MultiGateway
attr packetLength 76B
attr processid 14502
attr repetition 0
attr replication #0
attr resultdir ../results
attr runnumber 0
attr seedset 0
attr sendInt 2
param **.configurator.addStaticRoutes false
param **.dumpRoutes false
param **.dumpTopology false
param **.host[*].**.gpsr.beaconInterval "${beaconInterval = 10s}"
param **.host[*].**.gpsr.maxJitter ${$beaconInterval/2}
param **.host[*].**.gpsr.neighborValidityInterval "${3 * $beaconInterval}"
param **.host[*].**.gpsr.positionByteLength "2 B"
param **.host[*].**.gpsr.routingStrategy "\"StraightestPath\""
param **.host[*].**.trafficgen.continueSendingDummyPackets true
param **.host[*].**.trafficgen.coolDownDuration 15s
param **.host[*].**.trafficgen.destAddresses "\"host[0].wrappedHost(modulepath)\""
param **.host[*].**.trafficgen.packetLength "${packetLength = 76B}"
param **.host[*].**.trafficgen.sendInterval "exponential(${sendInt=1.0..2.5 step 0.25}s)"
param **.host[*].**.trafficgen.warmUpDuration 160s
param **.host[*].**.wlan[*].mac.macDSMEGTSExpirationTime 255
param **.host[*].**.wlan[*].macType "\"DSME\""
param **.host[*].**.wlan[*].radio.receiver.minInterferencePower "-100 dBm"
param **.host[*].hostType "\"SimpleHost\""
param **.host[*].mobilityType "\"StaticConcentricWrappingMobility\""
param **.host[0].**.trafficgen.numPackets 0
param **.host[0].**.wlan[*].mac.isPANCoordinator true
param **.host[1..].**.trafficgen.numPackets 100
param **.numHosts 62
param **.radioMedium.rangeFilter "\"interferenceRange\""
param **.routingTable.addressType "\"modulepath\""
param **.routingTableType "\"GenericRoutingTable\""

vector 9  Net802154MultiGateway.host[0].wrappedHost.trafficgen  sentDummyPk:vector(packetBytes)  ETV
attr interpolationmode  none
attr source  sentDummyPk
attr title  "dummy packets sent, vector(packetBytes)"
vector 27  Net802154MultiGateway.host[1].wrappedHost.trafficgen  sentDummyPk:vector(packetBytes)  ETV
attr interpolationmode  none
attr source  sentDummyPk
attr title  "dummy packets sent, vector(packetBytes)"
vector 45  Net802154MultiGateway.host[2].wrappedHost.trafficgen  sentDummyPk:vector(packetBytes)  ETV
attr interpolationmode  none
attr source  sentDummyPk
attr title  "dummy packets sent, vector(packetBytes)"
vector 63  Net802154MultiGateway.host[3].wrappedHost.trafficgen  sentDummyPk:vector(packetBytes)  ETV
attr interpolationmode  none
attr source  sentDummyPk
attr title  "dummy packets sent, vector(packetBytes)"
vector 81  Net802154MultiGateway.host[4].wrappedHost.trafficgen  sentDummyPk:vector(packetBytes)  ETV
attr interpolationmode  none
attr source  sentDummyPk
attr title  "dummy packets sent, vector(packetBytes)"
vector 99  Net802154MultiGateway.host[5].wrappedHost.trafficgen  sentDummyPk:vector(packetBytes)  ETV
attr interpolationmode  none
attr source  sentDummyPk
attr title  "dummy packets sent, vector(packetBytes)"
vector 117  Net802154MultiGateway.host[6].wrappedHost.trafficgen  sentDummyPk:vector(packetBytes)  ETV
attr interpolationmode  none
attr source  sentDummyPk
attr title  "dummy packets sent, vector(packetBytes)"
vector 135  Net802154MultiGateway.host[7].wrappedHost.trafficgen  sentDummyPk:vector(packetBytes)  ETV
attr interpolationmode  none
attr source  sentDummyPk
attr title  "dummy packets sent, vector(packetBytes)"
vector 153  Net802154MultiGateway.host[8].wrappedHost.trafficgen  sentDummyPk:vector(packetBytes)  ETV
attr interpolationmode  none
attr source  sentDummyPk
attr title  "dummy packets sent, vector(packetBytes)"
vector 171  Net802154MultiGateway.host[9].wrappedHost.trafficgen  sentDummyPk:vector(packetBytes)  ETV
attr interpolationmode  none
attr source  sentDummyPk
attr title  "dummy packets sent, vector(packetBytes)"
vector 189  Net802154MultiGateway.host[10].wrappedHost.trafficgen  sentDummyPk:vector(packetBytes)  ETV
attr interpolationmode  none
attr source  sentDummyPk
attr title  "dummy packets sent, vector(packetBytes)"
vector 207  Net802154MultiGateway.host[11].wrappedHost.trafficgen  sentDummyPk:vector(packetBytes)  ETV
attr interpolationmode  none
attr source  sentDummyPk
attr title  "dummy packets sent, vector(packetBytes)"
vector 225  Net802154MultiGateway.host[12].wrappedHost.trafficgen  sentDummyPk:vector(packetBytes)  ETV
attr interpolationmode  none
attr source  sentDummyPk
attr title  "dummy packets sent, vector(packetBytes)"
vector 243  Net802154MultiGateway.host[13].wrappedHost.trafficgen  sentDummyPk:vector(packetBytes)  ETV
attr interpolationmode  none
attr source  sentDummyPk
attr title  "dummy packets sent, vector(packetBytes)"
vector 261  Net802154MultiGateway.host[14].wrappedHost.trafficgen  sentDummyPk:vector(packetBytes)  ETV
attr interpolationmode  none
attr source  sentDummyPk
attr title  "dummy packets sent, vector(packetBytes)"
vector 279  Net802154MultiGateway.host[15].wrappedHost.trafficgen  sentDummyPk:vector(packetBytes)  ETV
attr interpolationmode  none
attr source  sentDummyPk
attr title  "dummy packets sent, vector(packetBytes)"
vector 297  Net802154MultiGateway.host[16].wrappedHost.trafficgen  sentDummyPk:vector(packetBytes)  ETV
attr interpolationmode  none
attr source  sentDummyPk
attr title  "dummy packets sent, vector(packetBytes)"
vector 315  Net802154MultiGateway.host[17].wrappedHost.trafficgen  sentDummyPk:vector(packetBytes)  ETV
attr interpolationmode  none
attr source  sentDummyPk
attr title  "dummy packets sent, vector(packetBytes)"
vector 333  Net802154MultiGateway.host[18].wrappedHost.trafficgen  sentDummyPk:vector(packetBytes)  ETV
attr interpolationmode  none
attr source  sentDummyPk
attr title  "dummy packets sent, vector(packetBytes)"
vector 351  Net802154MultiGateway.host[19].wrappedHost.trafficgen  sentDummyPk:vector(packetBytes)  ETV
attr interpolationmode  none
attr source  sentDummyPk
attr title  "dummy packets sent, vector(packetBytes)"
vector 369  Net802154MultiGateway.host[20].wrappedHost.trafficgen  sentDummyPk:vector(packetBytes)  ETV
attr interpolationmode  none
attr source  sentDummyPk
attr title  "dummy packets sent, vector(packetBytes)"
vector 387  Net802154MultiGateway.host[21].wrappedHost.trafficgen  sentDummyPk:vector(packetBytes)  ETV
attr interpolationmode  none
attr source  sentDummyPk
attr title  "dummy packets sent, vector(packetBytes)"
vector 405  Net802154MultiGateway.host[22].wrappedHost.trafficgen  sentDummyPk:vector(packetBytes)  ETV
attr interpolationmode  none
attr source  sentDummyPk
attr title  "dummy packets sent, vector(packetBytes)"
vector 423  Net802154MultiGateway.host[23].wrappedHost.trafficgen  sentDummyPk:vector(packetBytes)  ETV
attr interpolationmode  none
attr source  sentDummyPk
attr title  "dummy packets sent, vector(packetBytes)"
vector 441  Net802154MultiGateway.host[24].wrappedHost.trafficgen  sentDummyPk:vector(packetBytes)  ETV
attr interpolationmode  none
attr source  sentDummyPk
attr title  "dummy packets sent, vector(packetBytes)"
vector 459  Net802154MultiGateway.host[25].wrappedHost.trafficgen  sentDummyPk:vector(packetBytes)  ETV
attr interpolationmode  none
attr source  sentDummyPk
attr title  "dummy packets sent, vector(packetBytes)"
vector 477  Net802154MultiGateway.host[26].wrappedHost.trafficgen  sentDummyPk:vector(packetBytes)  ETV
attr interpolationmode  none
attr source  sentDummyPk
attr title  "dummy packets sent, vector(packetBytes)"
vector 495  Net802154MultiGateway.host[27].wrappedHost.trafficgen  sentDummyPk:vector(packetBytes)  ETV
attr interpolationmode  none
attr source  sentDummyPk
attr title  "dummy packets sent, vector(packetBytes)"
vector 513  Net802154MultiGateway.host[28].wrappedHost.trafficgen  sentDummyPk:vector(packetBytes)  ETV
attr interpolationmode  none
attr source  sentDummyPk
attr title  "dummy packets sent, vector(packetBytes)"
vector 531  Net802154MultiGateway.host[29].wrappedHost.trafficgen  sentDummyPk:vector(packetBytes)  ETV
attr interpolationmode  none
attr source  sentDummyPk
attr title  "dummy packets sent, vector(packetBytes)"
vector 549  Net802154MultiGateway.host[30].wrappedHost.trafficgen  sentDummyPk:vector(packetBytes)  ETV
attr interpolationmode  none
attr source  sentDummyPk
attr title  "dummy packets sent, vector(packetBytes)"
vector 567  Net802154MultiGateway.host[31].wrappedHost.trafficgen  sentDummyPk:vector(packetBytes)  ETV
attr interpolationmode  none
attr source  sentDummyPk
attr title  "dummy packets sent, vector(packetBytes)"
vector 585  Net802154MultiGateway.host[32].wrappedHost.trafficgen  sentDummyPk:vector(packetBytes)  ETV
attr interpolationmode  none
attr source  sentDummyPk
attr title  "dummy packets sent, vector(packetBytes)"
vector 603  Net802154MultiGateway.host[33].wrappedHost.trafficgen  sentDummyPk:vector(packetBytes)  ETV
attr interpolationmode  none
attr source  sentDummyPk
attr title  "dummy packets sent, vector(packetBytes)"
vector 621  Net802154MultiGateway.host[34].wrappedHost.trafficgen  sentDummyPk:vector(packetBytes)  ETV
attr interpolationmode  none
attr source  sentDummyPk
attr title  "dummy packets sent, vector(packetBytes)"
vector 639  Net802154MultiGateway.host[35].wrappedHost.trafficgen  sentDummyPk:vector(packetBytes)  ETV
attr interpolationmode  none
attr source  sentDummyPk
attr title  "dummy packets sent, vector(packetBytes)"
vector 657  Net802154MultiGateway.host[36].wrappedHost.trafficgen  sentDummyPk:vector(packetBytes)  ETV
attr interpolationmode  none
attr source  sentDummyPk
attr title  "dummy packets sent, vector(packetBytes)"
vector 675  Net802154MultiGateway.host[37].wrappedHost.trafficgen  sentDummyPk:vector(packetBytes)  ETV
attr interpolationmode  none
attr source  sentDummyPk
attr title  "dummy packets sent, vector(packetBytes)"
vector 693  Net802154MultiGateway.host[38].wrappedHost.trafficgen  sentDummyPk:vector(packetBytes)  ETV
attr interpolationmode  none
attr source  sentDummyPk
attr title  "dummy packets sent, vector(packetBytes)"
vector 711  Net802154MultiGateway.host[39].wrappedHost.trafficgen  sentDummyPk:vector(packetBytes)  ETV
attr interpolationmode  none
attr source  sentDummyPk
attr title  "dummy packets sent, vector(packetBytes)"
vector 729  Net802154MultiGateway.host[40].wrappedHost.trafficgen  sentDummyPk:vector(packetBytes)  ETV
attr interpolationmode  none
attr source  sentDummyPk
attr title  "dummy packets sent, vector(packetBytes)"
vector 747  Net802154MultiGateway.host[41].wrappedHost.trafficgen  sentDummyPk:vector(packetBytes)  ETV
attr interpolationmode  none
attr source  sentDummyPk
attr title  "dummy packets sent, vector(packetBytes)"
vector 765  Net802154MultiGateway.host[42].wrappedHost.trafficgen  sentDummyPk:vector(packetBytes)  ETV
attr interpolationmode  none
attr source  sentDummyPk
attr title  "dummy packets sent, vector(packetBytes)"
vector 783  Net802154MultiGateway.host[43].wrappedHost.trafficgen  sentDummyPk:vector(packetBytes)  ETV
attr interpolationmode  none
attr source  sentDummyPk
attr title  "dummy packets sent, vector(packetBytes)"
vector 801  Net802154MultiGateway.host[44].wrappedHost.trafficgen  sentDummyPk:vector(packetBytes)  ETV
attr interpolationmode  none
attr source  sentDummyPk
attr title  "dummy packets sent, vector(packetBytes)"
vector 819  Net802154MultiGateway.host[45].wrappedHost.trafficgen  sentDummyPk:vector(packetBytes)  ETV
attr interpolationmode  none
attr source  sentDummyPk
attr title  "dummy packets sent, vector(packetBytes)"
vector 837  Net802154MultiGateway.host[46].wrappedHost.trafficgen  sentDummyPk:vector(packetBytes)  ETV
attr interpolationmode  none
attr source  sentDummyPk
attr title  "dummy packets sent, vector(packetBytes)"
vector 855  Net802154MultiGateway.host[47].wrappedHost.trafficgen  sentDummyPk:vector(packetBytes)  ETV
attr interpolationmode  none
attr source  sentDummyPk
attr title  "dummy packets sent, vector(packetBytes)"
vector 873  Net802154MultiGateway.host[48].wrappedHost.trafficgen  sentDummyPk:vector(packetBytes)  ETV
attr interpolationmode  none
attr source  sentDummyPk
attr title  "dummy packets sent, vector(packetBytes)"
vector 891  Net802154MultiGateway.host[49].wrappedHost.trafficgen  sentDummyPk:vector(packetBytes)  ETV
attr interpolationmode  none
attr source  sentDummyPk
attr title  "dummy packets sent, vector(packetBytes)"
vector 909  Net802154MultiGateway.host[50].wrappedHost.trafficgen  sentDummyPk:vector(packetBytes)  ETV
attr interpolationmode  none
attr source  sentDummyPk
attr title  "dummy packets sent, vector(packetBytes)"
vector 927  Net802154MultiGateway.host[51].wrappedHost.trafficgen  sentDummyPk:vector(packetBytes)  ETV
attr interpolationmode  none
attr source  sentDummyPk
attr title  "dummy packets sent, vector(packetBytes)"
vector 945  Net802154MultiGateway.host[52].wrappedHost.trafficgen  sentDummyPk:vector(packetBytes)  ETV
attr interpolationmode  none
attr source  sentDummyPk
attr title  "dummy packets sent, vector(packetBytes)"
vector 963  Net802154MultiGateway.host[53].wrappedHost.trafficgen  sentDummyPk:vector(packetBytes)  ETV
attr interpolationmode  none
attr source  sentDummyPk
attr title  "dummy packets sent, vector(packetBytes)"
vector 981  Net802154MultiGateway.host[54].wrappedHost.trafficgen  sentDummyPk:vector(packetBytes)  ETV
attr interpolationmode  none
attr source  sentDummyPk
attr title  "dummy packets sent, vector(packetBytes)"
vector 999  Net802154MultiGateway.host[55].wrappedHost.trafficgen  sentDummyPk:vector(packetBytes)  ETV
attr interpolationmode  none
attr source  sentDummyPk
attr title  "dummy packets sent, vector(packetBytes)"
vector 1017  Net802154MultiGateway.host[56].wrappedHost.trafficgen  sentDummyPk:vector(packetBytes)  ETV
attr interpolationmode  none
attr source  sentDummyPk
attr title  "dummy packets sent, vector(packetBytes)"
vector 1035  Net802154MultiGateway.host[57].wrappedHost.trafficgen  sentDummyPk:vector(packetBytes)  ETV
attr interpolationmode  none
attr source  sentDummyPk
attr title  "dummy packets sent, vector(packetBytes)"
vector 1053  Net802154MultiGateway.host[58].wrappedHost.trafficgen  sentDummyPk:vector(packetBytes)  ETV
attr interpolationmode  none
attr source  sentDummyPk
attr title  "dummy packets sent, vector(packetBytes)"
vector 1071  Net802154MultiGateway.host[59].wrappedHost.trafficgen  sentDummyPk:vector(packetBytes)  ETV
attr interpolationmode  none
attr source  sentDummyPk
attr title  "dummy packets sent, vector(packetBytes)"
vector 1089  Net802154MultiGateway.host[60].wrappedHost.trafficgen  sentDummyPk:vector(packetBytes)  ETV
attr interpolationmode  none
attr source  sentDummyPk
attr title  "dummy packets sent, vector(packetBytes)"
vector 1107  Net802154MultiGateway.host[61].wrappedHost.trafficgen  sentDummyPk:vector(packetBytes)  ETV
attr interpolationmode  none
attr source  sentDummyPk
attr title  "dummy packets sent, vector(packetBytes)"
vector 35  Net802154MultiGateway.host[1].wrappedHost.wlan[0].mac  uncorruptedFrameReceived:vector(packetBytes)  ETV
attr interpolationmode  none
attr source  uncorruptedFrameReceived
attr title  "uncorrupted frame received, vector(packetBytes)"
vector 53  Net802154MultiGateway.host[2].wrappedHost.wlan[0].mac  uncorruptedFrameReceived:vector(packetBytes)  ETV
attr interpolationmode  none
attr source  uncorruptedFrameReceived
attr title  "uncorrupted frame received, vector(packetBytes)"
vector 71  Net802154MultiGateway.host[3].wrappedHost.wlan[0].mac  uncorruptedFrameReceived:vector(packetBytes)  ETV
attr interpolationmode  none
attr source  uncorruptedFrameReceived
attr title  "uncorrupted frame received, vector(packetBytes)"
vector 89  Net802154MultiGateway.host[4].wrappedHost.wlan[0].mac  uncorruptedFrameReceived:vector(packetBytes)  ETV
attr interpolationmode  none
attr source  uncorruptedFrameReceived
attr title  "uncorrupted frame received, vector(packetBytes)"
vector 107  Net802154MultiGateway.host[5].wrappedHost.wlan[0].mac  uncorruptedFrameReceived:vector(packetBytes)  ETV
attr interpolationmode  none
attr source  uncorruptedFrameReceived
attr title  "uncorrupted frame received, vector(packetBytes)"
vector 125  Net802154MultiGateway.host[6].wrappedHost.wlan[0].mac  uncorruptedFrameReceived:vector(packetBytes)  ETV
attr interpolationmode  none
attr source  uncorruptedFrameReceived
attr title  "uncorrupted frame received, vector(packetBytes)"
vector 17  Net802154MultiGateway.host[0].wrappedHost.wlan[0].mac  uncorruptedFrameReceived:vector(packetBytes)  ETV
attr interpolationmode  none
attr source  uncorruptedFrameReceived
attr title  "uncorrupted frame received, vector(packetBytes)"
vector 143  Net802154MultiGateway.host[7].wrappedHost.wlan[0].mac  uncorruptedFrameReceived:vector(packetBytes)  ETV
attr interpolationmode  none
attr source  uncorruptedFrameReceived
attr title  "uncorrupted frame received, vector(packetBytes)"
vector 161  Net802154MultiGateway.host[8].wrappedHost.wlan[0].mac  uncorruptedFrameReceived:vector(packetBytes)  ETV
attr interpolationmode  none
attr source  uncorruptedFrameReceived
attr title  "uncorrupted frame received, vector(packetBytes)"
vector 341  Net802154MultiGateway.host[18].wrappedHost.wlan[0].mac  uncorruptedFrameReceived:vector(packetBytes)  ETV
attr interpolationmode  none
attr source  uncorruptedFrameReceived
attr title  "uncorrupted frame received, vector(packetBytes)"
vector 70  Net802154MultiGateway.host[3].wrappedHost.wlan[0].mac  corruptedFrameReceived:vector(packetBytes)  ETV
attr interpolationmode  none
attr source  corruptedFrameReceived
attr title  "corrupted frame received, vector(packetBytes)"
vector 106  Net802154MultiGateway.host[5].wrappedHost.wlan[0].mac  corruptedFrameReceived:vector(packetBytes)  ETV
attr interpolationmode  none
attr source  corruptedFrameReceived
attr title  "corrupted frame received, vector(packetBytes)"
vector 178  Net802154MultiGateway.host[9].wrappedHost.wlan[0].mac  corruptedFrameReceived:vector(packetBytes)  ETV
attr interpolationmode  none
attr source  corruptedFrameReceived
attr title  "corrupted frame received, vector(packetBytes)"
vector 322  Net802154MultiGateway.host[17].wrappedHost.wlan[0].mac  corruptedFrameReceived:vector(packetBytes)  ETV
attr interpolationmode  none
attr source  corruptedFrameReceived
attr title  "corrupted frame received, vector(packetBytes)"
vector 179  Net802154MultiGateway.host[9].wrappedHost.wlan[0].mac  uncorruptedFrameReceived:vector(packetBytes)  ETV
attr interpolationmode  none
attr source  uncorruptedFrameReceived
attr title  "uncorrupted frame received, vector(packetBytes)"
vector 323  Net802154MultiGateway.host[17].wrappedHost.wlan[0].mac  uncorruptedFrameReceived:vector(packetBytes)  ETV
attr interpolationmode  none
attr source  uncorruptedFrameReceived
attr title  "uncorrupted frame received, vector(packetBytes)"
vector 15  Net802154MultiGateway.host[0].wrappedHost.wlan[0].mac  broadDataSentDown:vector(packetBytes)  ETV
attr interpolationmode  none
attr source  broadcastDataSentDown
attr title  "broadcast packet sent down of type DATA, vector(packetBytes)"
vector 251  Net802154MultiGateway.host[13].wrappedHost.wlan[0].mac  uncorruptedFrameReceived:vector(packetBytes)  ETV
attr interpolationmode  none
attr source  uncorruptedFrameReceived
attr title  "uncorrupted frame received, vector(packetBytes)"
vector 233  Net802154MultiGateway.host[12].wrappedHost.wlan[0].mac  uncorruptedFrameReceived:vector(packetBytes)  ETV
attr interpolationmode  none
attr source  uncorruptedFrameReceived
attr title  "uncorrupted frame received, vector(packetBytes)"
vector 269  Net802154MultiGateway.host[14].wrappedHost.wlan[0].mac  uncorruptedFrameReceived:vector(packetBytes)  ETV
attr interpolationmode  none
attr source  uncorruptedFrameReceived
attr title  "uncorrupted frame received, vector(packetBytes)"
vector 124  Net802154MultiGateway.host[6].wrappedHost.wlan[0].mac  corruptedFrameReceived:vector(packetBytes)  ETV
attr interpolationmode  none
attr source  corruptedFrameReceived
attr title  "corrupted frame received, vector(packetBytes)"
vector 214  Net802154MultiGateway.host[11].wrappedHost.wlan[0].mac  corruptedFrameReceived:vector(packetBytes)  ETV
attr interpolationmode  none
attr source  corruptedFrameReceived
attr title  "corrupted frame received, vector(packetBytes)"
vector 286  Net802154MultiGateway.host[15].wrappedHost.wlan[0].mac  corruptedFrameReceived:vector(packetBytes)  ETV
attr interpolationmode  none
attr source  corruptedFrameReceived
attr title  "corrupted frame received, vector(packetBytes)"
vector 287  Net802154MultiGateway.host[15].wrappedHost.wlan[0].mac  uncorruptedFrameReceived:vector(packetBytes)  ETV
attr interpolationmode  none
attr source  uncorruptedFrameReceived
attr title  "uncorrupted frame received, vector(packetBytes)"
vector 305  Net802154MultiGateway.host[16].wrappedHost.wlan[0].mac  uncorruptedFrameReceived:vector(packetBytes)  ETV
attr interpolationmode  none
attr source  uncorruptedFrameReceived
attr title  "uncorrupted frame received, vector(packetBytes)"
vector 34  Net802154MultiGateway.host[1].wrappedHost.wlan[0].mac  corruptedFrameReceived:vector(packetBytes)  ETV
attr interpolationmode  none
attr source  corruptedFrameReceived
attr title  "corrupted frame received, vector(packetBytes)"
vector 250  Net802154MultiGateway.host[13].wrappedHost.wlan[0].mac  corruptedFrameReceived:vector(packetBytes)  ETV
attr interpolationmode  none
attr source  corruptedFrameReceived
attr title  "corrupted frame received, vector(packetBytes)"
vector 197  Net802154MultiGateway.host[10].wrappedHost.wlan[0].mac  uncorruptedFrameReceived:vector(packetBytes)  ETV
attr interpolationmode  none
attr source  uncorruptedFrameReceived
attr title  "uncorrupted frame received, vector(packetBytes)"
vector 88  Net802154MultiGateway.host[4].wrappedHost.wlan[0].mac  corruptedFrameReceived:vector(packetBytes)  ETV
attr interpolationmode  none
attr source  corruptedFrameReceived
attr title  "corrupted frame received, vector(packetBytes)"
vector 142  Net802154MultiGateway.host[7].wrappedHost.wlan[0].mac  corruptedFrameReceived:vector(packetBytes)  ETV
attr interpolationmode  none
attr source  corruptedFrameReceived
attr title  "corrupted frame received, vector(packetBytes)"
vector 215  Net802154MultiGateway.host[11].wrappedHost.wlan[0].mac  uncorruptedFrameReceived:vector(packetBytes)  ETV
attr interpolationmode  none
attr source  uncorruptedFrameReceived
attr title  "uncorrupted frame received, vector(packetBytes)"
vector 52  Net802154MultiGateway.host[2].wrappedHost.wlan[0].mac  corruptedFrameReceived:vector(packetBytes)  ETV
attr interpolationmode  none
attr source  corruptedFrameReceived
attr title  "corrupted frame received, vector(packetBytes)"
vector 683  Net802154MultiGateway.host[37].wrappedHost.wlan[0].mac  uncorruptedFrameReceived:vector(packetBytes)  ETV
attr interpolationmode  none
attr source  uncorruptedFrameReceived
attr title  "uncorrupted frame received, vector(packetBytes)"
vector 1097  Net802154MultiGateway.host[60].wrappedHost.wlan[0].mac  uncorruptedFrameReceived:vector(packetBytes)  ETV
attr interpolationmode  none
attr source  uncorruptedFrameReceived
attr title  "uncorrupted frame received, vector(packetBytes)"
vector 665  Net802154MultiGateway.host[36].wrappedHost.wlan[0].mac  uncorruptedFrameReceived:vector(packetBytes)  ETV
attr interpolationmode  none
attr source  uncorruptedFrameReceived
attr title  "uncorrupted frame received, vector(packetBytes)"
vector 359  Net802154MultiGateway.host[19].wrappedHost.wlan[0].mac  uncorruptedFrameReceived:vector(packetBytes)  ETV
attr interpolationmode  none
attr source  uncorruptedFrameReceived
attr title  "uncorrupted frame received, vector(packetBytes)"
vector 647  Net802154MultiGateway.host[35].wrappedHost.wlan[0].mac  uncorruptedFrameReceived:vector(packetBytes)  ETV
attr interpolationmode  none
attr source  uncorruptedFrameReceived
attr title  "uncorrupted frame received, vector(packetBytes)"
vector 123  Net802154MultiGateway.host[6].wrappedHost.wlan[0].mac  broadDataSentDown:vector(packetBytes)  ETV
attr interpolationmode  none
attr source  broadcastDataSentDown
attr title  "broadcast packet sent down of type DATA, vector(packetBytes)"
vector 104  Net802154MultiGateway.host[5].wrappedHost.wlan[0].mac  unicastDataSentDown:vector(packetBytes)  ETV
attr interpolationmode  none
attr source  unicastDataSentDown
attr title  "unicast packet sent down of type DATA, vector(packetBytes)"
vector 827  Net802154MultiGateway.host[45].wrappedHost.wlan[0].mac  uncorruptedFrameReceived:vector(packetBytes)  ETV
attr interpolationmode  none
attr source  uncorruptedFrameReceived
attr title  "uncorrupted frame received, vector(packetBytes)"
vector 863  Net802154MultiGateway.host[47].wrappedHost.wlan[0].mac  uncorruptedFrameReceived:vector(packetBytes)  ETV
attr interpolationmode  none
attr source  uncorruptedFrameReceived
attr title  "uncorrupted frame received, vector(packetBytes)"
vector 467  Net802154MultiGateway.host[25].wrappedHost.wlan[0].mac  uncorruptedFrameReceived:vector(packetBytes)  ETV
attr interpolationmode  none
attr source  uncorruptedFrameReceived
attr title  "uncorrupted frame received, vector(packetBytes)"
vector 485  Net802154MultiGateway.host[26].wrappedHost.wlan[0].mac  uncorruptedFrameReceived:vector(packetBytes)  ETV
attr interpolationmode  none
attr source  uncorruptedFrameReceived
attr title  "uncorrupted frame received, vector(packetBytes)"
vector 122  Net802154MultiGateway.host[6].wrappedHost.wlan[0].mac  unicastDataSentDown:vector(packetBytes)  ETV
attr interpolationmode  none
attr source  unicastDataSentDown
attr title  "unicast packet sent down of type DATA, vector(packetBytes)"
vector 503  Net802154MultiGateway.host[27].wrappedHost.wlan[0].mac  uncorruptedFrameReceived:vector(packetBytes)  ETV
attr interpolationmode  none
attr source  uncorruptedFrameReceived
attr title  "uncorrupted frame received, vector(packetBytes)"
vector 521  Net802154MultiGateway.host[28].wrappedHost.wlan[0].mac  uncorruptedFrameReceived:vector(packetBytes)  ETV
attr interpolationmode  none
attr source  uncorruptedFrameReceived
attr title  "uncorrupted frame received, vector(packetBytes)"
vector 449  Net802154MultiGateway.host[24].wrappedHost.wlan[0].mac  uncorruptedFrameReceived:vector(packetBytes)  ETV
attr interpolationmode  none
attr source  uncorruptedFrameReceived
attr title  "uncorrupted frame received, vector(packetBytes)"
vector 50  Net802154MultiGateway.host[2].wrappedHost.wlan[0].mac  unicastDataSentDown:vector(packetBytes)  ETV
attr interpolationmode  none
attr source  unicastDataSentDown
attr title  "unicast packet sent down of type DATA, vector(packetBytes)"
vector 413  Net802154MultiGateway.host[22].wrappedHost.wlan[0].mac  uncorruptedFrameReceived:vector(packetBytes)  ETV
attr interpolationmode  none
attr source  uncorruptedFrameReceived
attr title  "uncorrupted frame received, vector(packetBytes)"
vector 395  Net802154MultiGateway.host[21].wrappedHost.wlan[0].mac  uncorruptedFrameReceived:vector(packetBytes)  ETV
attr interpolationmode  none
attr source  uncorruptedFrameReceived
attr title  "uncorrupted frame received, vector(packetBytes)"
vector 431  Net802154MultiGateway.host[23].wrappedHost.wlan[0].mac  uncorruptedFrameReceived:vector(packetBytes)  ETV
attr interpolationmode  none
attr source  uncorruptedFrameReceived
attr title  "uncorrupted frame received, vector(packetBytes)"
vector 1043  Net802154MultiGateway.host[57].wrappedHost.wlan[0].mac  uncorruptedFrameReceived:vector(packetBytes)  ETV
attr interpolationmode  none
attr source  uncorruptedFrameReceived
attr title  "uncorrupted frame received, vector(packetBytes)"
vector 1079  Net802154MultiGateway.host[59].wrappedHost.wlan[0].mac  uncorruptedFrameReceived:vector(packetBytes)  ETV
attr interpolationmode  none
attr source  uncorruptedFrameReceived
attr title  "uncorrupted frame received, vector(packetBytes)"
vector 629  Net802154MultiGateway.host[34].wrappedHost.wlan[0].mac  uncorruptedFrameReceived:vector(packetBytes)  ETV
attr interpolationmode  none
attr source  uncorruptedFrameReceived
attr title  "uncorrupted frame received, vector(packetBytes)"
vector 611  Net802154MultiGateway.host[33].wrappedHost.wlan[0].mac  uncorruptedFrameReceived:vector(packetBytes)  ETV
attr interpolationmode  none
attr source  uncorruptedFrameReceived
attr title  "uncorrupted frame received, vector(packetBytes)"
vector 466  Net802154MultiGateway.host[25].wrappedHost.wlan[0].mac  corruptedFrameReceived:vector(packetBytes)  ETV
attr interpolationmode  none
attr source  corruptedFrameReceived
attr title  "corrupted frame received, vector(packetBytes)"
vector 935  Net802154MultiGateway.host[51].wrappedHost.wlan[0].mac  uncorruptedFrameReceived:vector(packetBytes)  ETV
attr interpolationmode  none
attr source  uncorruptedFrameReceived
attr title  "uncorrupted frame received, vector(packetBytes)"
vector 971  Net802154MultiGateway.host[53].wrappedHost.wlan[0].mac  uncorruptedFrameReceived:vector(packetBytes)  ETV
attr interpolationmode  none
attr source  uncorruptedFrameReceived
attr title  "uncorrupted frame received, vector(packetBytes)"
vector 557  Net802154MultiGateway.host[30].wrappedHost.wlan[0].mac  uncorruptedFrameReceived:vector(packetBytes)  ETV
attr interpolationmode  none
attr source  uncorruptedFrameReceived
attr title  "uncorrupted frame received, vector(packetBytes)"
vector 539  Net802154MultiGateway.host[29].wrappedHost.wlan[0].mac  uncorruptedFrameReceived:vector(packetBytes)  ETV
attr interpolationmode  none
attr source  uncorruptedFrameReceived
attr title  "uncorrupted frame received, vector(packetBytes)"
vector 574  Net802154MultiGateway.host[31].wrappedHost.wlan[0].mac  corruptedFrameReceived:vector(packetBytes)  ETV
attr interpolationmode  none
attr source  corruptedFrameReceived
attr title  "corrupted frame received, vector(packetBytes)"
vector 575  Net802154MultiGateway.host[31].wrappedHost.wlan[0].mac  uncorruptedFrameReceived:vector(packetBytes)  ETV
attr interpolationmode  none
attr source  uncorruptedFrameReceived
attr title  "uncorrupted frame received, vector(packetBytes)"
vector 593  Net802154MultiGateway.host[32].wrappedHost.wlan[0].mac  uncorruptedFrameReceived:vector(packetBytes)  ETV
attr interpolationmode  none
attr source  uncorruptedFrameReceived
attr title  "uncorrupted frame received, vector(packetBytes)"
vector 628  Net802154MultiGateway.host[34].wrappedHost.wlan[0].mac  corruptedFrameReceived:vector(packetBytes)  ETV
attr interpolationmode  none
attr source  corruptedFrameReceived
attr title  "corrupted frame received, vector(packetBytes)"
vector 32  Net802154MultiGateway.host[1].wrappedHost.wlan[0].mac  unicastDataSentDown:vector(packetBytes)  ETV
attr interpolationmode  none
attr source  unicastDataSentDown
attr title  "unicast packet sent down of type DATA, vector(packetBytes)"
vector 845  Net802154MultiGateway.host[46].wrappedHost.wlan[0].mac  uncorruptedFrameReceived:vector(packetBytes)  ETV
attr interpolationmode  none
attr source  uncorruptedFrameReceived
attr title  "uncorrupted frame received, vector(packetBytes)"
vector 881  Net802154MultiGateway.host[48].wrappedHost.wlan[0].mac  uncorruptedFrameReceived:vector(packetBytes)  ETV
attr interpolationmode  none
attr source  uncorruptedFrameReceived
attr title  "uncorrupted frame received, vector(packetBytes)"
vector 809  Net802154MultiGateway.host[44].wrappedHost.wlan[0].mac  uncorruptedFrameReceived:vector(packetBytes)  ETV
attr interpolationmode  none
attr source  uncorruptedFrameReceived
attr title  "uncorrupted frame received, vector(packetBytes)"
vector 196  Net802154MultiGateway.host[10].wrappedHost.wlan[0].mac  corruptedFrameReceived:vector(packetBytes)  ETV
attr interpolationmode  none
attr source  corruptedFrameReceived
attr title  "corrupted frame received, vector(packetBytes)"
vector 862  Net802154MultiGateway.host[47].wrappedHost.wlan[0].mac  corruptedFrameReceived:vector(packetBytes)  ETV
attr interpolationmode  none
attr source  corruptedFrameReceived
attr title  "corrupted frame received, vector(packetBytes)"
vector 1061  Net802154MultiGateway.host[58].wrappedHost.wlan[0].mac  uncorruptedFrameReceived:vector(packetBytes)  ETV
attr interpolationmode  none
attr source  uncorruptedFrameReceived
attr title  "uncorrupted frame received, vector(packetBytes)"
vector 358  Net802154MultiGateway.host[19].wrappedHost.wlan[0].mac  corruptedFrameReceived:vector(packetBytes)  ETV
attr interpolationmode  none
attr source  corruptedFrameReceived
attr title  "corrupted frame received, vector(packetBytes)"
vector 86  Net802154MultiGateway.host[4].wrappedHost.wlan[0].mac  unicastDataSentDown:vector(packetBytes)  ETV
attr interpolationmode  none
attr source  unicastDataSentDown
attr title  "unicast packet sent down of type DATA, vector(packetBytes)"
vector 1115  Net802154MultiGateway.host[61].wrappedHost.wlan[0].mac  uncorruptedFrameReceived:vector(packetBytes)  ETV
attr interpolationmode  none
attr source  uncorruptedFrameReceived
attr title  "uncorrupted frame received, vector(packetBytes)"
vector 682  Net802154MultiGateway.host[37].wrappedHost.wlan[0].mac  corruptedFrameReceived:vector(packetBytes)  ETV
attr interpolationmode  none
attr source  corruptedFrameReceived
attr title  "corrupted frame received, vector(packetBytes)"
vector 1078  Net802154MultiGateway.host[59].wrappedHost.wlan[0].mac  corruptedFrameReceived:vector(packetBytes)  ETV
attr interpolationmode  none
attr source  corruptedFrameReceived
attr title  "corrupted frame received, vector(packetBytes)"
vector 953  Net802154MultiGateway.host[52].wrappedHost.wlan[0].mac  uncorruptedFrameReceived:vector(packetBytes)  ETV
attr interpolationmode  none
attr source  uncorruptedFrameReceived
attr title  "uncorrupted frame received, vector(packetBytes)"
vector 988  Net802154MultiGateway.host[54].wrappedHost.wlan[0].mac  corruptedFrameReceived:vector(packetBytes)  ETV
attr interpolationmode  none
attr source  corruptedFrameReceived
attr title  "corrupted frame received, vector(packetBytes)"
vector 989  Net802154MultiGateway.host[54].wrappedHost.wlan[0].mac  uncorruptedFrameReceived:vector(packetBytes)  ETV
attr interpolationmode  none
attr source  uncorruptedFrameReceived
attr title  "uncorrupted frame received, vector(packetBytes)"
vector 377  Net802154MultiGateway.host[20].wrappedHost.wlan[0].mac  uncorruptedFrameReceived:vector(packetBytes)  ETV
attr interpolationmode  none
attr source  uncorruptedFrameReceived
attr title  "uncorrupted frame received, vector(packetBytes)"
vector 701  Net802154MultiGateway.host[38].wrappedHost.wlan[0].mac  uncorruptedFrameReceived:vector(packetBytes)  ETV
attr interpolationmode  none
attr source  uncorruptedFrameReceived
attr title  "uncorrupted frame received, vector(packetBytes)"
vector 737  Net802154MultiGateway.host[40].wrappedHost.wlan[0].mac  uncorruptedFrameReceived:vector(packetBytes)  ETV
attr interpolationmode  none
attr source  uncorruptedFrameReceived
attr title  "uncorrupted frame received, vector(packetBytes)"
vector 1114  Net802154MultiGateway.host[61].wrappedHost.wlan[0].mac  corruptedFrameReceived:vector(packetBytes)  ETV
attr interpolationmode  none
attr source  corruptedFrameReceived
attr title  "corrupted frame received, vector(packetBytes)"
vector 304  Net802154MultiGateway.host[16].wrappedHost.wlan[0].mac  corruptedFrameReceived:vector(packetBytes)  ETV
attr interpolationmode  none
attr source  corruptedFrameReceived
attr title  "corrupted frame received, vector(packetBytes)"
vector 340  Net802154MultiGateway.host[18].wrappedHost.wlan[0].mac  corruptedFrameReceived:vector(packetBytes)  ETV
attr interpolationmode  none
attr source  corruptedFrameReceived
attr title  "corrupted frame received, vector(packetBytes)"
vector 1025  Net802154MultiGateway.host[56].wrappedHost.wlan[0].mac  uncorruptedFrameReceived:vector(packetBytes)  ETV
attr interpolationmode  none
attr source  uncorruptedFrameReceived
attr title  "uncorrupted frame received, vector(packetBytes)"
vector 1007  Net802154MultiGateway.host[55].wrappedHost.wlan[0].mac  uncorruptedFrameReceived:vector(packetBytes)  ETV
attr interpolationmode  none
attr source  uncorruptedFrameReceived
attr title  "uncorrupted frame received, vector(packetBytes)"
vector 1060  Net802154MultiGateway.host[58].wrappedHost.wlan[0].mac  corruptedFrameReceived:vector(packetBytes)  ETV
attr interpolationmode  none
attr source  corruptedFrameReceived
attr title  "corrupted frame received, vector(packetBytes)"
vector 1006  Net802154MultiGateway.host[55].wrappedHost.wlan[0].mac  corruptedFrameReceived:vector(packetBytes)  ETV
attr interpolationmode  none
attr source  corruptedFrameReceived
attr title  "corrupted frame received, vector(packetBytes)"
vector 33  Net802154MultiGateway.host[1].wrappedHost.wlan[0].mac  broadDataSentDown:vector(packetBytes)  ETV
attr interpolationmode  none
attr source  broadcastDataSentDown
attr title  "broadcast packet sent down of type DATA, vector(packetBytes)"
vector 68  Net802154MultiGateway.host[3].wrappedHost.wlan[0].mac  unicastDataSentDown:vector(packetBytes)  ETV
attr interpolationmode  none
attr source  unicastDataSentDown
attr title  "unicast packet sent down of type DATA, vector(packetBytes)"
vector 719  Net802154MultiGateway.host[39].wrappedHost.wlan[0].mac  uncorruptedFrameReceived:vector(packetBytes)  ETV
attr interpolationmode  none
attr source  uncorruptedFrameReceived
attr title  "uncorrupted frame received, vector(packetBytes)"
vector 394  Net802154MultiGateway.host[21].wrappedHost.wlan[0].mac  corruptedFrameReceived:vector(packetBytes)  ETV
attr interpolationmode  none
attr source  corruptedFrameReceived
attr title  "corrupted frame received, vector(packetBytes)"
vector 826  Net802154MultiGateway.host[45].wrappedHost.wlan[0].mac  corruptedFrameReceived:vector(packetBytes)  ETV
attr interpolationmode  none
attr source  corruptedFrameReceived
attr title  "corrupted frame received, vector(packetBytes)"
vector 520  Net802154MultiGateway.host[28].wrappedHost.wlan[0].mac  corruptedFrameReceived:vector(packetBytes)  ETV
attr interpolationmode  none
attr source  corruptedFrameReceived
attr title  "corrupted frame received, vector(packetBytes)"
vector 899  Net802154MultiGateway.host[49].wrappedHost.wlan[0].mac  uncorruptedFrameReceived:vector(packetBytes)  ETV
attr interpolationmode  none
attr source  uncorruptedFrameReceived
attr title  "uncorrupted frame received, vector(packetBytes)"
vector 51  Net802154MultiGateway.host[2].wrappedHost.wlan[0].mac  broadDataSentDown:vector(packetBytes)  ETV
attr interpolationmode  none
attr source  broadcastDataSentDown
attr title  "broadcast packet sent down of type DATA, vector(packetBytes)"
vector 321  Net802154MultiGateway.host[17].wrappedHost.wlan[0].mac  broadDataSentDown:vector(packetBytes)  ETV
attr interpolationmode  none
attr source  broadcastDataSentDown
attr title  "broadcast packet sent down of type DATA, vector(packetBytes)"
vector 627  Net802154MultiGateway.host[34].wrappedHost.wlan[0].mac  broadDataSentDown:vector(packetBytes)  ETV
attr interpolationmode  none
attr source  broadcastDataSentDown
attr title  "broadcast packet sent down of type DATA, vector(packetBytes)"
vector 303  Net802154MultiGateway.host[16].wrappedHost.wlan[0].mac  broadDataSentDown:vector(packetBytes)  ETV
attr interpolationmode  none
attr source  broadcastDataSentDown
attr title  "broadcast packet sent down of type DATA, vector(packetBytes)"
vector 268  Net802154MultiGateway.host[14].wrappedHost.wlan[0].mac  corruptedFrameReceived:vector(packetBytes)  ETV
attr interpolationmode  none
attr source  corruptedFrameReceived
attr title  "corrupted frame received, vector(packetBytes)"
vector 952  Net802154MultiGateway.host[52].wrappedHost.wlan[0].mac  corruptedFrameReceived:vector(packetBytes)  ETV
attr interpolationmode  none
attr source  corruptedFrameReceived
attr title  "corrupted frame received, vector(packetBytes)"
vector 105  Net802154MultiGateway.host[5].wrappedHost.wlan[0].mac  broadDataSentDown:vector(packetBytes)  ETV
attr interpolationmode  none
attr source  broadcastDataSentDown
attr title  "broadcast packet sent down of type DATA, vector(packetBytes)"
vector 302  Net802154MultiGateway.host[16].wrappedHost.wlan[0].mac  unicastDataSentDown:vector(packetBytes)  ETV
attr interpolationmode  none
attr source  unicastDataSentDown
attr title  "unicast packet sent down of type DATA, vector(packetBytes)"
vector 320  Net802154MultiGateway.host[17].wrappedHost.wlan[0].mac  unicastDataSentDown:vector(packetBytes)  ETV
attr interpolationmode  none
attr source  unicastDataSentDown
attr title  "unicast packet sent down of type DATA, vector(packetBytes)"
vector 808  Net802154MultiGateway.host[44].wrappedHost.wlan[0].mac  corruptedFrameReceived:vector(packetBytes)  ETV
attr interpolationmode  none
attr source  corruptedFrameReceived
attr title  "corrupted frame received, vector(packetBytes)"
vector 232  Net802154MultiGateway.host[12].wrappedHost.wlan[0].mac  corruptedFrameReceived:vector(packetBytes)  ETV
attr interpolationmode  none
attr source  corruptedFrameReceived
attr title  "corrupted frame received, vector(packetBytes)"
vector 231  Net802154MultiGateway.host[12].wrappedHost.wlan[0].mac  broadDataSentDown:vector(packetBytes)  ETV
attr interpolationmode  none
attr source  broadcastDataSentDown
attr title  "broadcast packet sent down of type DATA, vector(packetBytes)"
vector 141  Net802154MultiGateway.host[7].wrappedHost.wlan[0].mac  broadDataSentDown:vector(packetBytes)  ETV
attr interpolationmode  none
attr source  broadcastDataSentDown
attr title  "broadcast packet sent down of type DATA, vector(packetBytes)"
vector 69  Net802154MultiGateway.host[3].wrappedHost.wlan[0].mac  broadDataSentDown:vector(packetBytes)  ETV
attr interpolationmode  none
attr source  broadcastDataSentDown
attr title  "broadcast packet sent down of type DATA, vector(packetBytes)"
vector 608  Net802154MultiGateway.host[33].wrappedHost.wlan[0].mac  unicastDataSentDown:vector(packetBytes)  ETV
attr interpolationmode  none
attr source  unicastDataSentDown
attr title  "unicast packet sent down of type DATA, vector(packetBytes)"
vector 917  Net802154MultiGateway.host[50].wrappedHost.wlan[0].mac  uncorruptedFrameReceived:vector(packetBytes)  ETV
attr interpolationmode  none
attr source  uncorruptedFrameReceived
attr title  "uncorrupted frame received, vector(packetBytes)"
vector 880  Net802154MultiGateway.host[48].wrappedHost.wlan[0].mac  corruptedFrameReceived:vector(packetBytes)  ETV
attr interpolationmode  none
attr source  corruptedFrameReceived
attr title  "corrupted frame received, vector(packetBytes)"
vector 934  Net802154MultiGateway.host[51].wrappedHost.wlan[0].mac  corruptedFrameReceived:vector(packetBytes)  ETV
attr interpolationmode  none
attr source  corruptedFrameReceived
attr title  "corrupted frame received, vector(packetBytes)"
vector 267  Net802154MultiGateway.host[14].wrappedHost.wlan[0].mac  broadDataSentDown:vector(packetBytes)  ETV
attr interpolationmode  none
attr source  broadcastDataSentDown
attr title  "broadcast packet sent down of type DATA, vector(packetBytes)"
vector 160  Net802154MultiGateway.host[8].wrappedHost.wlan[0].mac  corruptedFrameReceived:vector(packetBytes)  ETV
attr interpolationmode  none
attr source  corruptedFrameReceived
attr title  "corrupted frame received, vector(packetBytes)"
vector 591  Net802154MultiGateway.host[32].wrappedHost.wlan[0].mac  broadDataSentDown:vector(packetBytes)  ETV
attr interpolationmode  none
attr source  broadcastDataSentDown
attr title  "broadcast packet sent down of type DATA, vector(packetBytes)"
vector 140  Net802154MultiGateway.host[7].wrappedHost.wlan[0].mac  unicastDataSentDown:vector(packetBytes)  ETV
attr interpolationmode  none
attr source  unicastDataSentDown
attr title  "unicast packet sent down of type DATA, vector(packetBytes)"
vector 249  Net802154MultiGateway.host[13].wrappedHost.wlan[0].mac  broadDataSentDown:vector(packetBytes)  ETV
attr interpolationmode  none
attr source  broadcastDataSentDown
attr title  "broadcast packet sent down of type DATA, vector(packetBytes)"
vector 284  Net802154MultiGateway.host[15].wrappedHost.wlan[0].mac  unicastDataSentDown:vector(packetBytes)  ETV
attr interpolationmode  none
attr source  unicastDataSentDown
attr title  "unicast packet sent down of type DATA, vector(packetBytes)"
vector 773  Net802154MultiGateway.host[42].wrappedHost.wlan[0].mac  uncorruptedFrameReceived:vector(packetBytes)  ETV
attr interpolationmode  none
attr source  uncorruptedFrameReceived
attr title  "uncorrupted frame received, vector(packetBytes)"
vector 609  Net802154MultiGateway.host[33].wrappedHost.wlan[0].mac  broadDataSentDown:vector(packetBytes)  ETV
attr interpolationmode  none
attr source  broadcastDataSentDown
attr title  "broadcast packet sent down of type DATA, vector(packetBytes)"
vector 664  Net802154MultiGateway.host[36].wrappedHost.wlan[0].mac  corruptedFrameReceived:vector(packetBytes)  ETV
attr interpolationmode  none
attr source  corruptedFrameReceived
attr title  "corrupted frame received, vector(packetBytes)"
vector 933  Net802154MultiGateway.host[51].wrappedHost.wlan[0].mac  broadDataSentDown:vector(packetBytes)  ETV
attr interpolationmode  none
attr source  broadcastDataSentDown
attr title  "broadcast packet sent down of type DATA, vector(packetBytes)"
vector 791  Net802154MultiGateway.host[43].wrappedHost.wlan[0].mac  uncorruptedFrameReceived:vector(packetBytes)  ETV
attr interpolationmode  none
attr source  uncorruptedFrameReceived
attr title  "uncorrupted frame received, vector(packetBytes)"
vector 663  Net802154MultiGateway.host[36].wrappedHost.wlan[0].mac  broadDataSentDown:vector(packetBytes)  ETV
attr interpolationmode  none
attr source  broadcastDataSentDown
attr title  "broadcast packet sent down of type DATA, vector(packetBytes)"
vector 662  Net802154MultiGateway.host[36].wrappedHost.wlan[0].mac  unicastDataSentDown:vector(packetBytes)  ETV
attr interpolationmode  none
attr source  unicastDataSentDown
attr title  "unicast packet sent down of type DATA, vector(packetBytes)"
vector 339  Net802154MultiGateway.host[18].wrappedHost.wlan[0].mac  broadDataSentDown:vector(packetBytes)  ETV
attr interpolationmode  none
attr source  broadcastDataSentDown
attr title  "broadcast packet sent down of type DATA, vector(packetBytes)"
vector 213  Net802154MultiGateway.host[11].wrappedHost.wlan[0].mac  broadDataSentDown:vector(packetBytes)  ETV
attr interpolationmode  none
attr source  broadcastDataSentDown
attr title  "broadcast packet sent down of type DATA, vector(packetBytes)"
vector 736  Net802154MultiGateway.host[40].wrappedHost.wlan[0].mac  corruptedFrameReceived:vector(packetBytes)  ETV
attr interpolationmode  none
attr source  corruptedFrameReceived
attr title  "corrupted frame received, vector(packetBytes)"
vector 266  Net802154MultiGateway.host[14].wrappedHost.wlan[0].mac  unicastDataSentDown:vector(packetBytes)  ETV
attr interpolationmode  none
attr source  unicastDataSentDown
attr title  "unicast packet sent down of type DATA, vector(packetBytes)"
vector 159  Net802154MultiGateway.host[8].wrappedHost.wlan[0].mac  broadDataSentDown:vector(packetBytes)  ETV
attr interpolationmode  none
attr source  broadcastDataSentDown
attr title  "broadcast packet sent down of type DATA, vector(packetBytes)"
vector 338  Net802154MultiGateway.host[18].wrappedHost.wlan[0].mac  unicastDataSentDown:vector(packetBytes)  ETV
attr interpolationmode  none
attr source  unicastDataSentDown
attr title  "unicast packet sent down of type DATA, vector(packetBytes)"
vector 483  Net802154MultiGateway.host[26].wrappedHost.wlan[0].mac  broadDataSentDown:vector(packetBytes)  ETV
attr interpolationmode  none
attr source  broadcastDataSentDown
attr title  "broadcast packet sent down of type DATA, vector(packetBytes)"
vector 502  Net802154MultiGateway.host[27].wrappedHost.wlan[0].mac  corruptedFrameReceived:vector(packetBytes)  ETV
attr interpolationmode  none
attr source  corruptedFrameReceived
attr title  "corrupted frame received, vector(packetBytes)"
vector 87  Net802154MultiGateway.host[4].wrappedHost.wlan[0].mac  broadDataSentDown:vector(packetBytes)  ETV
attr interpolationmode  none
attr source  broadcastDataSentDown
attr title  "broadcast packet sent down of type DATA, vector(packetBytes)"
vector 195  Net802154MultiGateway.host[10].wrappedHost.wlan[0].mac  broadDataSentDown:vector(packetBytes)  ETV
attr interpolationmode  none
attr source  broadcastDataSentDown
attr title  "broadcast packet sent down of type DATA, vector(packetBytes)"
vector 285  Net802154MultiGateway.host[15].wrappedHost.wlan[0].mac  broadDataSentDown:vector(packetBytes)  ETV
attr interpolationmode  none
attr source  broadcastDataSentDown
attr title  "broadcast packet sent down of type DATA, vector(packetBytes)"
vector 573  Net802154MultiGateway.host[31].wrappedHost.wlan[0].mac  broadDataSentDown:vector(packetBytes)  ETV
attr interpolationmode  none
attr source  broadcastDataSentDown
attr title  "broadcast packet sent down of type DATA, vector(packetBytes)"
vector 500  Net802154MultiGateway.host[27].wrappedHost.wlan[0].mac  unicastDataSentDown:vector(packetBytes)  ETV
attr interpolationmode  none
attr source  unicastDataSentDown
attr title  "unicast packet sent down of type DATA, vector(packetBytes)"
vector 484  Net802154MultiGateway.host[26].wrappedHost.wlan[0].mac  corruptedFrameReceived:vector(packetBytes)  ETV
attr interpolationmode  none
attr source  corruptedFrameReceived
attr title  "corrupted frame received, vector(packetBytes)"
vector 843  Net802154MultiGateway.host[46].wrappedHost.wlan[0].mac  broadDataSentDown:vector(packetBytes)  ETV
attr interpolationmode  none
attr source  broadcastDataSentDown
attr title  "broadcast packet sent down of type DATA, vector(packetBytes)"
vector 230  Net802154MultiGateway.host[12].wrappedHost.wlan[0].mac  unicastDataSentDown:vector(packetBytes)  ETV
attr interpolationmode  none
attr source  unicastDataSentDown
attr title  "unicast packet sent down of type DATA, vector(packetBytes)"
vector 556  Net802154MultiGateway.host[30].wrappedHost.wlan[0].mac  corruptedFrameReceived:vector(packetBytes)  ETV
attr interpolationmode  none
attr source  corruptedFrameReceived
attr title  "corrupted frame received, vector(packetBytes)"
vector 212  Net802154MultiGateway.host[11].wrappedHost.wlan[0].mac  unicastDataSentDown:vector(packetBytes)  ETV
attr interpolationmode  none
attr source  unicastDataSentDown
attr title  "unicast packet sent down of type DATA, vector(packetBytes)"
vector 554  Net802154MultiGateway.host[30].wrappedHost.wlan[0].mac  unicastDataSentDown:vector(packetBytes)  ETV
attr interpolationmode  none
attr source  unicastDataSentDown
attr title  "unicast packet sent down of type DATA, vector(packetBytes)"
vector 536  Net802154MultiGateway.host[29].wrappedHost.wlan[0].mac  unicastDataSentDown:vector(packetBytes)  ETV
attr interpolationmode  none
attr source  unicastDataSentDown
attr title  "unicast packet sent down of type DATA, vector(packetBytes)"
vector 537  Net802154MultiGateway.host[29].wrappedHost.wlan[0].mac  broadDataSentDown:vector(packetBytes)  ETV
attr interpolationmode  none
attr source  broadcastDataSentDown
attr title  "broadcast packet sent down of type DATA, vector(packetBytes)"
vector 987  Net802154MultiGateway.host[54].wrappedHost.wlan[0].mac  broadDataSentDown:vector(packetBytes)  ETV
attr interpolationmode  none
attr source  broadcastDataSentDown
attr title  "broadcast packet sent down of type DATA, vector(packetBytes)"
vector 356  Net802154MultiGateway.host[19].wrappedHost.wlan[0].mac  unicastDataSentDown:vector(packetBytes)  ETV
attr interpolationmode  none
attr source  unicastDataSentDown
attr title  "unicast packet sent down of type DATA, vector(packetBytes)"
vector 645  Net802154MultiGateway.host[35].wrappedHost.wlan[0].mac  broadDataSentDown:vector(packetBytes)  ETV
attr interpolationmode  none
attr source  broadcastDataSentDown
attr title  "broadcast packet sent down of type DATA, vector(packetBytes)"
vector 501  Net802154MultiGateway.host[27].wrappedHost.wlan[0].mac  broadDataSentDown:vector(packetBytes)  ETV
attr interpolationmode  none
attr source  broadcastDataSentDown
attr title  "broadcast packet sent down of type DATA, vector(packetBytes)"
vector 610  Net802154MultiGateway.host[33].wrappedHost.wlan[0].mac  corruptedFrameReceived:vector(packetBytes)  ETV
attr interpolationmode  none
attr source  corruptedFrameReceived
attr title  "corrupted frame received, vector(packetBytes)"
vector 644  Net802154MultiGateway.host[35].wrappedHost.wlan[0].mac  unicastDataSentDown:vector(packetBytes)  ETV
attr interpolationmode  none
attr source  unicastDataSentDown
attr title  "unicast packet sent down of type DATA, vector(packetBytes)"
vector 1005  Net802154MultiGateway.host[55].wrappedHost.wlan[0].mac  broadDataSentDown:vector(packetBytes)  ETV
attr interpolationmode  none
attr source  broadcastDataSentDown
attr title  "broadcast packet sent down of type DATA, vector(packetBytes)"
vector 555  Net802154MultiGateway.host[30].wrappedHost.wlan[0].mac  broadDataSentDown:vector(packetBytes)  ETV
attr interpolationmode  none
attr source  broadcastDataSentDown
attr title  "broadcast packet sent down of type DATA, vector(packetBytes)"
vector 590  Net802154MultiGateway.host[32].wrappedHost.wlan[0].mac  unicastDataSentDown:vector(packetBytes)  ETV
attr interpolationmode  none
attr source  unicastDataSentDown
attr title  "unicast packet sent down of type DATA, vector(packetBytes)"
vector 518  Net802154MultiGateway.host[28].wrappedHost.wlan[0].mac  unicastDataSentDown:vector(packetBytes)  ETV
attr interpolationmode  none
attr source  unicastDataSentDown
attr title  "unicast packet sent down of type DATA, vector(packetBytes)"
vector 412  Net802154MultiGateway.host[22].wrappedHost.wlan[0].mac  corruptedFrameReceived:vector(packetBytes)  ETV
attr interpolationmode  none
attr source  corruptedFrameReceived
attr title  "corrupted frame received, vector(packetBytes)"
vector 755  Net802154MultiGateway.host[41].wrappedHost.wlan[0].mac  uncorruptedFrameReceived:vector(packetBytes)  ETV
attr interpolationmode  none
attr source  uncorruptedFrameReceived
attr title  "uncorrupted frame received, vector(packetBytes)"
vector 700  Net802154MultiGateway.host[38].wrappedHost.wlan[0].mac  corruptedFrameReceived:vector(packetBytes)  ETV
attr interpolationmode  none
attr source  corruptedFrameReceived
attr title  "corrupted frame received, vector(packetBytes)"
vector 248  Net802154MultiGateway.host[13].wrappedHost.wlan[0].mac  unicastDataSentDown:vector(packetBytes)  ETV
attr interpolationmode  none
attr source  unicastDataSentDown
attr title  "unicast packet sent down of type DATA, vector(packetBytes)"
vector 1058  Net802154MultiGateway.host[58].wrappedHost.wlan[0].mac  unicastDataSentDown:vector(packetBytes)  ETV
attr interpolationmode  none
attr source  unicastDataSentDown
attr title  "unicast packet sent down of type DATA, vector(packetBytes)"
vector 626  Net802154MultiGateway.host[34].wrappedHost.wlan[0].mac  unicastDataSentDown:vector(packetBytes)  ETV
attr interpolationmode  none
attr source  unicastDataSentDown
attr title  "unicast packet sent down of type DATA, vector(packetBytes)"
vector 860  Net802154MultiGateway.host[47].wrappedHost.wlan[0].mac  unicastDataSentDown:vector(packetBytes)  ETV
attr interpolationmode  none
attr source  unicastDataSentDown
attr title  "unicast packet sent down of type DATA, vector(packetBytes)"
vector 950  Net802154MultiGateway.host[52].wrappedHost.wlan[0].mac  unicastDataSentDown:vector(packetBytes)  ETV
attr interpolationmode  none
attr source  unicastDataSentDown
attr title  "unicast packet sent down of type DATA, vector(packetBytes)"
vector 878  Net802154MultiGateway.host[48].wrappedHost.wlan[0].mac  unicastDataSentDown:vector(packetBytes)  ETV
attr interpolationmode  none
attr source  unicastDataSentDown
attr title  "unicast packet sent down of type DATA, vector(packetBytes)"
vector 482  Net802154MultiGateway.host[26].wrappedHost.wlan[0].mac  unicastDataSentDown:vector(packetBytes)  ETV
attr interpolationmode  none
attr source  unicastDataSentDown
attr title  "unicast packet sent down of type DATA, vector(packetBytes)"
vector 1040  Net802154MultiGateway.host[57].wrappedHost.wlan[0].mac  unicastDataSentDown:vector(packetBytes)  ETV
attr interpolationmode  none
attr source  unicastDataSentDown
attr title  "unicast packet sent down of type DATA, vector(packetBytes)"
vector 464  Net802154MultiGateway.host[25].wrappedHost.wlan[0].mac  unicastDataSentDown:vector(packetBytes)  ETV
attr interpolationmode  none
attr source  unicastDataSentDown
attr title  "unicast packet sent down of type DATA, vector(packetBytes)"
vector 986  Net802154MultiGateway.host[54].wrappedHost.wlan[0].mac  unicastDataSentDown:vector(packetBytes)  ETV
attr interpolationmode  none
attr source  unicastDataSentDown
attr title  "unicast packet sent down of type DATA, vector(packetBytes)"
vector 572  Net802154MultiGateway.host[31].wrappedHost.wlan[0].mac  unicastDataSentDown:vector(packetBytes)  ETV
attr interpolationmode  none
attr source  unicastDataSentDown
attr title  "unicast packet sent down of type DATA, vector(packetBytes)"
vector 392  Net802154MultiGateway.host[21].wrappedHost.wlan[0].mac  unicastDataSentDown:vector(packetBytes)  ETV
attr interpolationmode  none
attr source  unicastDataSentDown
attr title  "unicast packet sent down of type DATA, vector(packetBytes)"
vector 376  Net802154MultiGateway.host[20].wrappedHost.wlan[0].mac  corruptedFrameReceived:vector(packetBytes)  ETV
attr interpolationmode  none
attr source  corruptedFrameReceived
attr title  "corrupted frame received, vector(packetBytes)"
vector 158  Net802154MultiGateway.host[8].wrappedHost.wlan[0].mac  unicastDataSentDown:vector(packetBytes)  ETV
attr interpolationmode  none
attr source  unicastDataSentDown
attr title  "unicast packet sent down of type DATA, vector(packetBytes)"
vector 446  Net802154MultiGateway.host[24].wrappedHost.wlan[0].mac  unicastDataSentDown:vector(packetBytes)  ETV
attr interpolationmode  none
attr source  unicastDataSentDown
attr title  "unicast packet sent down of type DATA, vector(packetBytes)"
vector 968  Net802154MultiGateway.host[53].wrappedHost.wlan[0].mac  unicastDataSentDown:vector(packetBytes)  ETV
attr interpolationmode  none
attr source  unicastDataSentDown
attr title  "unicast packet sent down of type DATA, vector(packetBytes)"
vector 194  Net802154MultiGateway.host[10].wrappedHost.wlan[0].mac  unicastDataSentDown:vector(packetBytes)  ETV
attr interpolationmode  none
attr source  unicastDataSentDown
attr title  "unicast packet sent down of type DATA, vector(packetBytes)"
vector 374  Net802154MultiGateway.host[20].wrappedHost.wlan[0].mac  unicastDataSentDown:vector(packetBytes)  ETV
attr interpolationmode  none
attr source  unicastDataSentDown
attr title  "unicast packet sent down of type DATA, vector(packetBytes)"
vector 1094  Net802154MultiGateway.host[60].wrappedHost.wlan[0].mac  unicastDataSentDown:vector(packetBytes)  ETV
attr interpolationmode  none
attr source  unicastDataSentDown
attr title  "unicast packet sent down of type DATA, vector(packetBytes)"
vector 646  Net802154MultiGateway.host[35].wrappedHost.wlan[0].mac  corruptedFrameReceived:vector(packetBytes)  ETV
attr interpolationmode  none
attr source  corruptedFrameReceived
attr title  "corrupted frame received, vector(packetBytes)"
vector 754  Net802154MultiGateway.host[41].wrappedHost.wlan[0].mac  corruptedFrameReceived:vector(packetBytes)  ETV
attr interpolationmode  none
attr source  corruptedFrameReceived
attr title  "corrupted frame received, vector(packetBytes)"
vector 842  Net802154MultiGateway.host[46].wrappedHost.wlan[0].mac  unicastDataSentDown:vector(packetBytes)  ETV
attr interpolationmode  none
attr source  unicastDataSentDown
attr title  "unicast packet sent down of type DATA, vector(packetBytes)"
vector 896  Net802154MultiGateway.host[49].wrappedHost.wlan[0].mac  unicastDataSentDown:vector(packetBytes)  ETV
attr interpolationmode  none
attr source  unicastDataSentDown
attr title  "unicast packet sent down of type DATA, vector(packetBytes)"
vector 176  Net802154MultiGateway.host[9].wrappedHost.wlan[0].mac  unicastDataSentDown:vector(packetBytes)  ETV
attr interpolationmode  none
attr source  unicastDataSentDown
attr title  "unicast packet sent down of type DATA, vector(packetBytes)"
vector 824  Net802154MultiGateway.host[45].wrappedHost.wlan[0].mac  unicastDataSentDown:vector(packetBytes)  ETV
attr interpolationmode  none
attr source  unicastDataSentDown
attr title  "unicast packet sent down of type DATA, vector(packetBytes)"
vector 430  Net802154MultiGateway.host[23].wrappedHost.wlan[0].mac  corruptedFrameReceived:vector(packetBytes)  ETV
attr interpolationmode  none
attr source  corruptedFrameReceived
attr title  "corrupted frame received, vector(packetBytes)"
vector 428  Net802154MultiGateway.host[23].wrappedHost.wlan[0].mac  unicastDataSentDown:vector(packetBytes)  ETV
attr interpolationmode  none
attr source  unicastDataSentDown
attr title  "unicast packet sent down of type DATA, vector(packetBytes)"
vector 1004  Net802154MultiGateway.host[55].wrappedHost.wlan[0].mac  unicastDataSentDown:vector(packetBytes)  ETV
attr interpolationmode  none
attr source  unicastDataSentDown
attr title  "unicast packet sent down of type DATA, vector(packetBytes)"
vector 1076  Net802154MultiGateway.host[59].wrappedHost.wlan[0].mac  unicastDataSentDown:vector(packetBytes)  ETV
attr interpolationmode  none
attr source  unicastDataSentDown
attr title  "unicast packet sent down of type DATA, vector(packetBytes)"
vector 932  Net802154MultiGateway.host[51].wrappedHost.wlan[0].mac  unicastDataSentDown:vector(packetBytes)  ETV
attr interpolationmode  none
attr source  unicastDataSentDown
attr title  "unicast packet sent down of type DATA, vector(packetBytes)"
vector 1077  Net802154MultiGateway.host[59].wrappedHost.wlan[0].mac  broadDataSentDown:vector(packetBytes)  ETV
attr interpolationmode  none
attr source  broadcastDataSentDown
attr title  "broadcast packet sent down of type DATA, vector(packetBytes)"
vector 447  Net802154MultiGateway.host[24].wrappedHost.wlan[0].mac  broadDataSentDown:vector(packetBytes)  ETV
attr interpolationmode  none
attr source  broadcastDataSentDown
attr title  "broadcast packet sent down of type DATA, vector(packetBytes)"
vector 16  Net802154MultiGateway.host[0].wrappedHost.wlan[0].mac  corruptedFrameReceived:vector(packetBytes)  ETV
attr interpolationmode  none
attr source  corruptedFrameReceived
attr title  "corrupted frame received, vector(packetBytes)"
vector 411  Net802154MultiGateway.host[22].wrappedHost.wlan[0].mac  broadDataSentDown:vector(packetBytes)  ETV
attr interpolationmode  none
attr source  broadcastDataSentDown
attr title  "broadcast packet sent down of type DATA, vector(packetBytes)"
vector 177  Net802154MultiGateway.host[9].wrappedHost.wlan[0].mac  broadDataSentDown:vector(packetBytes)  ETV
attr interpolationmode  none
attr source  broadcastDataSentDown
attr title  "broadcast packet sent down of type DATA, vector(packetBytes)"
vector 969  Net802154MultiGateway.host[53].wrappedHost.wlan[0].mac  broadDataSentDown:vector(packetBytes)  ETV
attr interpolationmode  none
attr source  broadcastDataSentDown
attr title  "broadcast packet sent down of type DATA, vector(packetBytes)"
vector 465  Net802154MultiGateway.host[25].wrappedHost.wlan[0].mac  broadDataSentDown:vector(packetBytes)  ETV
attr interpolationmode  none
attr source  broadcastDataSentDown
attr title  "broadcast packet sent down of type DATA, vector(packetBytes)"
vector 915  Net802154MultiGateway.host[50].wrappedHost.wlan[0].mac  broadDataSentDown:vector(packetBytes)  ETV
attr interpolationmode  none
attr source  broadcastDataSentDown
attr title  "broadcast packet sent down of type DATA, vector(packetBytes)"
vector 519  Net802154MultiGateway.host[28].wrappedHost.wlan[0].mac  broadDataSentDown:vector(packetBytes)  ETV
attr interpolationmode  none
attr source  broadcastDataSentDown
attr title  "broadcast packet sent down of type DATA, vector(packetBytes)"
vector 1095  Net802154MultiGateway.host[60].wrappedHost.wlan[0].mac  broadDataSentDown:vector(packetBytes)  ETV
attr interpolationmode  none
attr source  broadcastDataSentDown
attr title  "broadcast packet sent down of type DATA, vector(packetBytes)"
vector 789  Net802154MultiGateway.host[43].wrappedHost.wlan[0].mac  broadDataSentDown:vector(packetBytes)  ETV
attr interpolationmode  none
attr source  broadcastDataSentDown
attr title  "broadcast packet sent down of type DATA, vector(packetBytes)"
vector 1023  Net802154MultiGateway.host[56].wrappedHost.wlan[0].mac  broadDataSentDown:vector(packetBytes)  ETV
attr interpolationmode  none
attr source  broadcastDataSentDown
attr title  "broadcast packet sent down of type DATA, vector(packetBytes)"
vector 393  Net802154MultiGateway.host[21].wrappedHost.wlan[0].mac  broadDataSentDown:vector(packetBytes)  ETV
attr interpolationmode  none
attr source  broadcastDataSentDown
attr title  "broadcast packet sent down of type DATA, vector(packetBytes)"
vector 1041  Net802154MultiGateway.host[57].wrappedHost.wlan[0].mac  broadDataSentDown:vector(packetBytes)  ETV
attr interpolationmode  none
attr source  broadcastDataSentDown
attr title  "broadcast packet sent down of type DATA, vector(packetBytes)"
vector 357  Net802154MultiGateway.host[19].wrappedHost.wlan[0].mac  broadDataSentDown:vector(packetBytes)  ETV
attr interpolationmode  none
attr source  broadcastDataSentDown
attr title  "broadcast packet sent down of type DATA, vector(packetBytes)"
vector 1022  Net802154MultiGateway.host[56].wrappedHost.wlan[0].mac  unicastDataSentDown:vector(packetBytes)  ETV
attr interpolationmode  none
attr source  unicastDataSentDown
attr title  "unicast packet sent down of type DATA, vector(packetBytes)"
vector 1113  Net802154MultiGateway.host[61].wrappedHost.wlan[0].mac  broadDataSentDown:vector(packetBytes)  ETV
attr interpolationmode  none
attr source  broadcastDataSentDown
attr title  "broadcast packet sent down of type DATA, vector(packetBytes)"
vector 1112  Net802154MultiGateway.host[61].wrappedHost.wlan[0].mac  unicastDataSentDown:vector(packetBytes)  ETV
attr interpolationmode  none
attr source  unicastDataSentDown
attr title  "unicast packet sent down of type DATA, vector(packetBytes)"
vector 879  Net802154MultiGateway.host[48].wrappedHost.wlan[0].mac  broadDataSentDown:vector(packetBytes)  ETV
attr interpolationmode  none
attr source  broadcastDataSentDown
attr title  "broadcast packet sent down of type DATA, vector(packetBytes)"
vector 807  Net802154MultiGateway.host[44].wrappedHost.wlan[0].mac  broadDataSentDown:vector(packetBytes)  ETV
attr interpolationmode  none
attr source  broadcastDataSentDown
attr title  "broadcast packet sent down of type DATA, vector(packetBytes)"
vector 897  Net802154MultiGateway.host[49].wrappedHost.wlan[0].mac  broadDataSentDown:vector(packetBytes)  ETV
attr interpolationmode  none
attr source  broadcastDataSentDown
attr title  "broadcast packet sent down of type DATA, vector(packetBytes)"
vector 951  Net802154MultiGateway.host[52].wrappedHost.wlan[0].mac  broadDataSentDown:vector(packetBytes)  ETV
attr interpolationmode  none
attr source  broadcastDataSentDown
attr title  "broadcast packet sent down of type DATA, vector(packetBytes)"
vector 375  Net802154MultiGateway.host[20].wrappedHost.wlan[0].mac  broadDataSentDown:vector(packetBytes)  ETV
attr interpolationmode  none
attr source  broadcastDataSentDown
attr title  "broadcast packet sent down of type DATA, vector(packetBytes)"
vector 699  Net802154MultiGateway.host[38].wrappedHost.wlan[0].mac  broadDataSentDown:vector(packetBytes)  ETV
attr interpolationmode  none
attr source  broadcastDataSentDown
attr title  "broadcast packet sent down of type DATA, vector(packetBytes)"
vector 861  Net802154MultiGateway.host[47].wrappedHost.wlan[0].mac  broadDataSentDown:vector(packetBytes)  ETV
attr interpolationmode  none
attr source  broadcastDataSentDown
attr title  "broadcast packet sent down of type DATA, vector(packetBytes)"
vector 825  Net802154MultiGateway.host[45].wrappedHost.wlan[0].mac  broadDataSentDown:vector(packetBytes)  ETV
attr interpolationmode  none
attr source  broadcastDataSentDown
attr title  "broadcast packet sent down of type DATA, vector(packetBytes)"
vector 698  Net802154MultiGateway.host[38].wrappedHost.wlan[0].mac  unicastDataSentDown:vector(packetBytes)  ETV
attr interpolationmode  none
attr source  unicastDataSentDown
attr title  "unicast packet sent down of type DATA, vector(packetBytes)"
vector 716  Net802154MultiGateway.host[39].wrappedHost.wlan[0].mac  unicastDataSentDown:vector(packetBytes)  ETV
attr interpolationmode  none
attr source  unicastDataSentDown
attr title  "unicast packet sent down of type DATA, vector(packetBytes)"
vector 771  Net802154MultiGateway.host[42].wrappedHost.wlan[0].mac  broadDataSentDown:vector(packetBytes)  ETV
attr interpolationmode  none
attr source  broadcastDataSentDown
attr title  "broadcast packet sent down of type DATA, vector(packetBytes)"
vector 1059  Net802154MultiGateway.host[58].wrappedHost.wlan[0].mac  broadDataSentDown:vector(packetBytes)  ETV
attr interpolationmode  none
attr source  broadcastDataSentDown
attr title  "broadcast packet sent down of type DATA, vector(packetBytes)"
vector 429  Net802154MultiGateway.host[23].wrappedHost.wlan[0].mac  broadDataSentDown:vector(packetBytes)  ETV
attr interpolationmode  none
attr source  broadcastDataSentDown
attr title  "broadcast packet sent down of type DATA, vector(packetBytes)"
vector 735  Net802154MultiGateway.host[40].wrappedHost.wlan[0].mac  broadDataSentDown:vector(packetBytes)  ETV
attr interpolationmode  none
attr source  broadcastDataSentDown
attr title  "broadcast packet sent down of type DATA, vector(packetBytes)"
vector 752  Net802154MultiGateway.host[41].wrappedHost.wlan[0].mac  unicastDataSentDown:vector(packetBytes)  ETV
attr interpolationmode  none
attr source  unicastDataSentDown
attr title  "unicast packet sent down of type DATA, vector(packetBytes)"
vector 410  Net802154MultiGateway.host[22].wrappedHost.wlan[0].mac  unicastDataSentDown:vector(packetBytes)  ETV
attr interpolationmode  none
attr source  unicastDataSentDown
attr title  "unicast packet sent down of type DATA, vector(packetBytes)"
vector 681  Net802154MultiGateway.host[37].wrappedHost.wlan[0].mac  broadDataSentDown:vector(packetBytes)  ETV
attr interpolationmode  none
attr source  broadcastDataSentDown
attr title  "broadcast packet sent down of type DATA, vector(packetBytes)"
vector 680  Net802154MultiGateway.host[37].wrappedHost.wlan[0].mac  unicastDataSentDown:vector(packetBytes)  ETV
attr interpolationmode  none
attr source  unicastDataSentDown
attr title  "unicast packet sent down of type DATA, vector(packetBytes)"
vector 770  Net802154MultiGateway.host[42].wrappedHost.wlan[0].mac  unicastDataSentDown:vector(packetBytes)  ETV
attr interpolationmode  none
attr source  unicastDataSentDown
attr title  "unicast packet sent down of type DATA, vector(packetBytes)"
vector 717  Net802154MultiGateway.host[39].wrappedHost.wlan[0].mac  broadDataSentDown:vector(packetBytes)  ETV
attr interpolationmode  none
attr source  broadcastDataSentDown
attr title  "broadcast packet sent down of type DATA, vector(packetBytes)"
vector 734  Net802154MultiGateway.host[40].wrappedHost.wlan[0].mac  unicastDataSentDown:vector(packetBytes)  ETV
attr interpolationmode  none
attr source  unicastDataSentDown
attr title  "unicast packet sent down of type DATA, vector(packetBytes)"
vector 806  Net802154MultiGateway.host[44].wrappedHost.wlan[0].mac  unicastDataSentDown:vector(packetBytes)  ETV
attr interpolationmode  none
attr source  unicastDataSentDown
attr title  "unicast packet sent down of type DATA, vector(packetBytes)"
vector 914  Net802154MultiGateway.host[50].wrappedHost.wlan[0].mac  unicastDataSentDown:vector(packetBytes)  ETV
attr interpolationmode  none
attr source  unicastDataSentDown
attr title  "unicast packet sent down of type DATA, vector(packetBytes)"
vector 788  Net802154MultiGateway.host[43].wrappedHost.wlan[0].mac  unicastDataSentDown:vector(packetBytes)  ETV
attr interpolationmode  none
attr source  unicastDataSentDown
attr title  "unicast packet sent down of type DATA, vector(packetBytes)"
vector 753  Net802154MultiGateway.host[41].wrappedHost.wlan[0].mac  broadDataSentDown:vector(packetBytes)  ETV
attr interpolationmode  none
attr source  broadcastDataSentDown
attr title  "broadcast packet sent down of type DATA, vector(packetBytes)"
vector 538  Net802154MultiGateway.host[29].wrappedHost.wlan[0].mac  corruptedFrameReceived:vector(packetBytes)  ETV
attr interpolationmode  none
attr source  corruptedFrameReceived
attr title  "corrupted frame received, vector(packetBytes)"
vector 448  Net802154MultiGateway.host[24].wrappedHost.wlan[0].mac  corruptedFrameReceived:vector(packetBytes)  ETV
attr interpolationmode  none
attr source  corruptedFrameReceived
attr title  "corrupted frame received, vector(packetBytes)"
vector 718  Net802154MultiGateway.host[39].wrappedHost.wlan[0].mac  corruptedFrameReceived:vector(packetBytes)  ETV
attr interpolationmode  none
attr source  corruptedFrameReceived
attr title  "corrupted frame received, vector(packetBytes)"
vector 258  Net802154MultiGateway.host[14].wrappedHost.trafficgen  sentPk:vector(packetBytes)  ETV
attr interpolationmode  none
attr source  sentPk
attr title  "packets sent, vector(packetBytes)"
vector 262  Net802154MultiGateway.host[14].wrappedHost.trafficgen  PRR:vector  ETV
attr interpolationmode  none
attr source  count(sinkRcvdPk)/count(sentPk)
attr title  "PRR, vector"
vector 24  Net802154MultiGateway.host[1].wrappedHost.trafficgen  sentPk:vector(packetBytes)  ETV
attr interpolationmode  none
attr source  sentPk
attr title  "packets sent, vector(packetBytes)"
vector 28  Net802154MultiGateway.host[1].wrappedHost.trafficgen  PRR:vector  ETV
attr interpolationmode  none
attr source  count(sinkRcvdPk)/count(sentPk)
attr title  "PRR, vector"
vector 26  Net802154MultiGateway.host[1].wrappedHost.trafficgen  sinkRcvdPk:vector(packetBytes)  ETV
attr interpolationmode  none
attr source  sinkRcvdPk
attr title  "own packets received by sink, vector(packetBytes)"
vector 5  Net802154MultiGateway.host[0].wrappedHost.trafficgen  rcvdPk:vector(packetBytes)  ETV
attr interpolationmode  none
attr source  rcvdPk
attr title  "packets received, vector(packetBytes)"
vector 7  Net802154MultiGateway.host[0].wrappedHost.trafficgen  endToEndDelay:vector  ETV
attr interpolationmode  none
attr source  messageAge(rcvdPk)
attr title  "end-to-end delay, vector"
attr unit  s
vector 330  Net802154MultiGateway.host[18].wrappedHost.trafficgen  sentPk:vector(packetBytes)  ETV
attr interpolationmode  none
attr source  sentPk
attr title  "packets sent, vector(packetBytes)"
vector 334  Net802154MultiGateway.host[18].wrappedHost.trafficgen  PRR:vector  ETV
attr interpolationmode  none
attr source  count(sinkRcvdPk)/count(sentPk)
attr title  "PRR, vector"
vector 726  Net802154MultiGateway.host[40].wrappedHost.trafficgen  sentPk:vector(packetBytes)  ETV
attr interpolationmode  none
attr source  sentPk
attr title  "packets sent, vector(packetBytes)"
vector 730  Net802154MultiGateway.host[40].wrappedHost.trafficgen  PRR:vector  ETV
attr interpolationmode  none
attr source  count(sinkRcvdPk)/count(sentPk)
attr title  "PRR, vector"
vector 222  Net802154MultiGateway.host[12].wrappedHost.trafficgen  sentPk:vector(packetBytes)  ETV
attr interpolationmode  none
attr source  sentPk
attr title  "packets sent, vector(packetBytes)"
vector 226  Net802154MultiGateway.host[12].wrappedHost.trafficgen  PRR:vector  ETV
attr interpolationmode  none
attr source  count(sinkRcvdPk)/count(sentPk)
attr title  "PRR, vector"
vector 816  Net802154MultiGateway.host[45].wrappedHost.trafficgen  sentPk:vector(packetBytes)  ETV
attr interpolationmode  none
attr source  sentPk
attr title  "packets sent, vector(packetBytes)"
vector 820  Net802154MultiGateway.host[45].wrappedHost.trafficgen  PRR:vector  ETV
attr interpolationmode  none
attr source  count(sinkRcvdPk)/count(sentPk)
attr title  "PRR, vector"
vector 798  Net802154MultiGateway.host[44].wrappedHost.trafficgen  sentPk:vector(packetBytes)  ETV
attr interpolationmode  none
attr source  sentPk
attr title  "packets sent, vector(packetBytes)"
vector 802  Net802154MultiGateway.host[44].wrappedHost.trafficgen  PRR:vector  ETV
attr interpolationmode  none
attr source  count(sinkRcvdPk)/count(sentPk)
attr title  "PRR, vector"
vector 348  Net802154MultiGateway.host[19].wrappedHost.trafficgen  sentPk:vector(packetBytes)  ETV
attr interpolationmode  none
attr source  sentPk
attr title  "packets sent, vector(packetBytes)"
vector 352  Net802154MultiGateway.host[19].wrappedHost.trafficgen  PRR:vector  ETV
attr interpolationmode  none
attr source  count(sinkRcvdPk)/count(sentPk)
attr title  "PRR, vector"
vector 402  Net802154MultiGateway.host[22].wrappedHost.trafficgen  sentPk:vector(packetBytes)  ETV
attr interpolationmode  none
attr source  sentPk
attr title  "packets sent, vector(packetBytes)"
vector 406  Net802154MultiGateway.host[22].wrappedHost.trafficgen  PRR:vector  ETV
attr interpolationmode  none
attr source  count(sinkRcvdPk)/count(sentPk)
attr title  "PRR, vector"
vector 186  Net802154MultiGateway.host[10].wrappedHost.trafficgen  sentPk:vector(packetBytes)  ETV
attr interpolationmode  none
attr source  sentPk
attr title  "packets sent, vector(packetBytes)"
vector 190  Net802154MultiGateway.host[10].wrappedHost.trafficgen  PRR:vector  ETV
attr interpolationmode  none
attr source  count(sinkRcvdPk)/count(sentPk)
attr title  "PRR, vector"
vector 168  Net802154MultiGateway.host[9].wrappedHost.trafficgen  sentPk:vector(packetBytes)  ETV
attr interpolationmode  none
attr source  sentPk
attr title  "packets sent, vector(packetBytes)"
vector 172  Net802154MultiGateway.host[9].wrappedHost.trafficgen  PRR:vector  ETV
attr interpolationmode  none
attr source  count(sinkRcvdPk)/count(sentPk)
attr title  "PRR, vector"
vector 690  Net802154MultiGateway.host[38].wrappedHost.trafficgen  sentPk:vector(packetBytes)  ETV
attr interpolationmode  none
attr source  sentPk
attr title  "packets sent, vector(packetBytes)"
vector 694  Net802154MultiGateway.host[38].wrappedHost.trafficgen  PRR:vector  ETV
attr interpolationmode  none
attr source  count(sinkRcvdPk)/count(sentPk)
attr title  "PRR, vector"
vector 366  Net802154MultiGateway.host[20].wrappedHost.trafficgen  sentPk:vector(packetBytes)  ETV
attr interpolationmode  none
attr source  sentPk
attr title  "packets sent, vector(packetBytes)"
vector 370  Net802154MultiGateway.host[20].wrappedHost.trafficgen  PRR:vector  ETV
attr interpolationmode  none
attr source  count(sinkRcvdPk)/count(sentPk)
attr title  "PRR, vector"
vector 906  Net802154MultiGateway.host[50].wrappedHost.trafficgen  sentPk:vector(packetBytes)  ETV
attr interpolationmode  none
attr source  sentPk
attr title  "packets sent, vector(packetBytes)"
vector 910  Net802154MultiGateway.host[50].wrappedHost.trafficgen  PRR:vector  ETV
attr interpolationmode  none
attr source  count(sinkRcvdPk)/count(sentPk)
attr title  "PRR, vector"
vector 654  Net802154MultiGateway.host[36].wrappedHost.trafficgen  sentPk:vector(packetBytes)  ETV
attr interpolationmode  none
attr source  sentPk
attr title  "packets sent, vector(packetBytes)"
vector 658  Net802154MultiGateway.host[36].wrappedHost.trafficgen  PRR:vector  ETV
attr interpolationmode  none
[...]
566	7293149 3200 3388746 7369731 161.675712333564 347.961792333564 100 76 76 7600 577600
567	7296349 3037 16152 9164350 1 431.387514145181 98 76 76 7448 566048
568	7299386 7747 3386382 7369731 161.568486493939 347.961792333564 200 0.5 1 -nan -nan
572	7307133 16062 456791 9185581 26.48832 432.37632 630 120 120 75600 9072000
573	7323195 1041 391884 8966290 23.27568 422.389568 41 29 29 1189 34481
574	7324236 15916 270710 9202689 16.524544584919 433.153120538651 493 5 120 35541 3589657
575	7340152 85308 288453 9205838 17.594960333564 433.276000347537 2699 5 120 108614 8764002
582	7425460 3192 3415829 7672462 162.907758895807 362.105253977312 100 76 76 7600 577600
584	7428652 3200 3425830 7689222 163.380672333564 362.937792333564 100 76 76 7600 577600
585	7431852 4402 16153 9204563 1 433.233753910632 141 76 76 10716 814416
586	7436254 7750 3415829 7689222 162.907758895807 362.937792333564 200 0.5 1 -nan -nan
590	7444004 12459 419109 9195806 24.64512 432.85248 488 120 120 58560 7027200
591	7456463 1075 364890 9183803 21.893664 432.30216 42 29 29 1218 35322
592	7457538 64 3722767 8094624 177.316960437934 381.675008347537 2 29 29 58 1682
593	7457602 83658 288461 9202665 17.594960437934 433.153120362697 2651 5 120 98933 7402191
600	7541260 3195 3390654 8458679 161.766807583798 398.668798889253 100 76 76 7600 577600
602	7544455 3200 3423405 8488305 163.265472333564 400.085952333564 100 76 76 7600 577600
603	7547655 2962 16154 9137882 1 430.195025916023 96 76 76 7296 554496
604	7550617 7982 3390654 8488305 161.766807583798 400.085952333564 200 0.5 1 -nan -nan
608	7558599 14912 358676 9145033 21.57312 430.51776 585 120 120 70200 8424000
609	7573511 1075 372165 9171835 22.279328 431.73392 42 29 29 1218 35322
610	7574586 4590 411281 9152149 24.245392534138 430.843888559244 145 19 34 4223 123343
611	7579176 96298 267930 9205839 16.365136559244 433.276000347537 3034 5 120 136909 11721331
618	7675474 3185 3404485 7727601 162.403789579599 364.723168654723 100 76 76 7600 577600
620	7678659 3200 3432403 7758854 163.649472333564 366.171072333564 100 76 76 7600 577600
621	7681859 2916 16155 9183196 1 432.281828697194 94 76 76 7144 542944
622	7684775 7942 3404485 7758854 162.403789579599 366.171072333564 200 0.33333333333333 1 -nan -nan
626	7692717 9939 438603 9195836 25.62816 432.85248 390 120 120 46800 5616000
627	7702656 1075 348399 9194673 21.035744 432.797648 42 29 29 1218 35322
628	7703731 28124 290693 9201694 17.710224538651 433.117632538651 866 5 120 78737 8749165
629	7731855 71831 267926 9205836 16.365136337057 433.276000347537 2275 5 120 79697 5329487
636	7803686 3187 3394728 8366731 161.941940442658 394.207646208001 100 76 76 7600 577600
638	7806873 3200 3400236 8386366 162.190272333564 395.155392333564 100 76 76 7600 577600
639	7810073 3241 16156 9106280 1 428.792485134178 105 76 76 7980 606480
640	7813314 7811 3394728 8386366 161.941940442658 395.155392333564 200 0.5 1 -nan -nan
644	7821125 9709 414602 9184959 24.39936 432.36096 382 120 120 45840 5500800
645	7830834 1042 409066 8945140 24.13752 421.40792 41 29 29 1189 34481
646	7831876 1454 496566 8936659 28.294816611071 421.007952486069 46 5 34 1308 37888
647	7833330 64626 233200 9204142 14.317184611071 433.225152339748 2050 5 120 78893 5816567
654	7897956 3192 3381230 8350233 161.349984503281 393.518876751516 100 76 76 7600 577600
656	7901148 3200 3386229 8373680 161.560512333564 394.540992333564 100 76 76 7600 577600
657	7904348 3173 16157 9168794 1 431.580216256235 103 76 76 7828 594928
658	7907521 7707 3381230 8373680 161.349984503281 394.540992333564 200 0.5 1 -nan -nan
662	7915228 14960 377669 9204415 22.55616 433.2288 587 120 120 70440 8452800
663	7930188 1042 376656 8933881 22.505312 420.891584 41 29 29 1189 34481
664	7931230 1513 374377 9203269 22.390240572016 433.182848572016 48 18 34 1374 39718
665	7932743 80334 233196 9205837 14.31718435215 433.276000347537 2549 5 120 98290 7513278
672	8013077 3191 3482135 7875059 165.979171160984 371.342938811821 100 76 76 7600 577600
674	8016268 3200 3495694 7879830 166.621632333564 371.539392333564 100 76 76 7600 577600
675	8019468 3260 16158 9149405 1 430.71827485672 105 76 76 7980 606480
676	8022728 7795 3482135 7879830 165.979171160984 371.539392333564 200 0.33333333333333 1 -nan -nan
680	8030523 4824 642200 9152898 34.72128 430.8864 188 120 120 22560 2707200
681	8035347 1051 638342 9179004 34.555472 432.075424 41 29 29 1189 34481
682	8036398 3124 328001 9162878 19.916672521831 431.309920521831 99 19 34 2913 86169
683	8039522 33779 233193 9205877 14.317184334453 433.276000521831 1064 5 120 47480 3955838
690	8073301 3187 3380455 8022424 161.314662264155 378.217319266958 100 76 76 7600 577600
692	8076488 3200 3394927 8027999 161.952192333564 378.466752333564 100 76 76 7600 577600
693	8079688 2696 16159 9162231 1 431.283674141418 87 76 76 6612 502512
694	8082384 7892 3380455 8027999 161.314662264155 378.466752333564 200 0.5 1 -nan -nan
698	8090276 4456 617818 9174881 33.61536 431.87712 174 120 120 20880 2505600
699	8094732 1024 614499 9008386 33.470896 424.33536 40 29 29 1160 33640
700	8095756 19285 425914 9197502 24.985024611071 432.907360611071 596 5 120 46014 4797258
701	8115041 32701 331039 9205845 20.067664334453 433.27600035215 1059 5 34 26045 736983
708	8147742 3190 3414994 7744062 162.882578128605 365.499898738521 100 76 76 7600 577600
710	8150932 3200 3427080 7766715 163.426752333564 366.524352333564 100 76 76 7600 577600
711	8154132 3771 16160 9197755 1 432.923878037183 122 76 76 9272 704672
712	8157903 8008 3414994 7766715 162.882578128605 366.524352333564 200 0.5 1 -nan -nan
716	8165911 5170 620276 9198800 33.73824 432.97536 203 120 120 24360 2923200
717	8171081 1024 646958 8993480 34.931984 423.628848 40 29 29 1160 33640
718	8172105 32 3338129 3338129 159.388992402643 159.388992402643 1 34 34 34 1156
719	8172137 43250 341970 9205859 20.671888334453 433.276000377756 1361 5 120 64175 5767209
726	8215387 3188 3376568 8291283 161.119108960079 390.759593379206 100 76 76 7600 577600
728	8218575 3200 3396493 8308346 162.028992333564 391.568832333564 100 76 76 7600 577600
729	8221775 3365 16161 9190341 1 432.607382727829 109 76 76 8284 629584
730	8225140 7974 3376568 8308346 161.119108960079 391.568832333564 200 0.5 1 -nan -nan
734	8233114 4790 653357 9196116 35.22048 432.86016 188 120 120 22560 2707200
735	8237904 1035 631301 9198405 34.220688 432.956384 41 29 29 1189 34481
736	8238939 7972 380112 9205883 22.66846500995 433.276000572016 252 5 34 7325 215709
737	8246911 35131 331040 9202984 20.067664334453 433.170064474592 1116 5 34 27340 773682
744	8282042 3189 3557998 8139196 169.677752375357 383.776850245689 100 76 76 7600 577600
746	8285231 3200 3606389 8159249 171.859392333564 384.687552333564 100 76 76 7600 577600
747	8288431 3463 16162 9186112 1 432.398718738717 112 76 76 8512 646912
748	8291894 7977 3557998 8159249 169.677752375357 384.687552333564 200 0.5 1 -nan -nan
752	8299871 4898 631572 9195819 34.22976 432.85248 192 120 120 23040 2764800
753	8304769 1024 773250 9193027 40.714 432.716016 40 29 29 1160 33640
754	8305793 6443 501858 9205881 28.560208559244 433.276000559244 203 14 34 5909 172655
755	8312236 29153 425912 9202968 24.985024486069 433.170064337057 928 5 34 21817 611857
762	8341389 3196 3450802 7569959 164.51302915081 357.147328505533 100 76 76 7600 577600
764	8344585 3200 3476514 7590481 165.738432333564 358.145472333564 100 76 76 7600 577600
765	8347785 4047 16163 9154205 1 430.914025994009 130 76 76 9880 750880
766	8351832 7985 3450802 7590481 164.51302915081 358.145472333564 200 0.33333333333333 1 -nan -nan
770	8359817 5371 644926 9164000 34.84416 431.37792 210 120 120 25200 3024000
771	8365188 1049 622185 9171260 33.818224 431.705904 41 29 29 1189 34481
773	8366237 27306 372158 9205857 22.277856334453 433.276000370476 869 5 34 19837 553065
780	8393543 3191 3452874 7561994 164.618944080335 356.74741610362 100 76 76 7600 577600
782	8396734 3200 3472330 7591997 165.515712333564 358.191552333564 100 76 76 7600 577600
783	8399934 3775 16164 9202296 1 433.143659386958 121 76 76 9196 698896
784	8403709 8086 3452874 7591997 164.618944080335 358.191552333564 200 0.5 1 -nan -nan
788	8411795 5361 696857 9204015 37.20192 433.22112 210 120 120 25200 3024000
789	8417156 1022 577457 9013966 31.861152 424.597696 40 29 29 1160 33640
790	8418178 33 4492391 4492391 213.638592431439 213.638592431439 1 120 120 120 14400
791	8418211 40927 374695 9205847 22.404800431439 433.276000357641 1284 5 120 70986 6730112
798	8459138 3191 3377102 7566202 161.153906140112 356.957765629602 100 76 76 7600 577600
800	8462329 3200 3397684 7579088 162.067392333564 357.569472333564 100 76 76 7600 577600
801	8465529 3958 16165 9160586 1 431.215071101511 127 76 76 9652 733552
802	8469487 8108 3377102 7579088 161.153906140112 357.569472333564 200 0.33333333333333 1 -nan -nan
806	8477595 5493 682430 9172074 36.56448 431.74656 215 120 120 25800 3096000
807	8483088 1048 597835 9174183 32.73608 431.848768 41 29 29 1189 34481
808	8484136 3700 355345 9205879 21.425008509706 433.276000534138 117 5 34 3386 99606
809	8487836 42040 304244 9200675 18.493968509706 433.073040333954 1320 5 120 72122 6791986
816	8529876 3178 3376699 7813002 161.129331595564 368.635648720944 100 76 76 7600 577600
818	8533054 3200 3399250 7863495 162.151872333564 370.832832333564 100 76 76 7600 577600
819	8536254 3600 16166 9135597 1 430.081679511546 116 76 76 8816 670016
820	8539854 8026 3376699 7863495 161.129331595564 370.832832333564 200 0.33333333333333 1 -nan -nan
824	8547880 5212 511071 9139543 28.94592 430.27968 205 120 120 24600 2952000
825	8553092 1050 617307 9138647 33.587552 430.237648 41 29 29 1189 34481
826	8554142 9877 345973 9202695 20.90852859794 433.15312059794 323 5 120 9582 315986
827	8564019 43349 244933 9200699 15.015824334453 433.07304045242 1383 5 120 75837 7096975
834	8607368 3189 3577227 7724749 170.533049236317 364.607534155258 100 76 76 7600 577600
836	8610557 3200 3607459 7782865 171.897792333564 367.284672333564 100 76 76 7600 577600
837	8613757 3969 16167 9179499 1 432.094602086324 127 76 76 9652 733552
838	8617726 8090 3577227 7782865 170.533049236317 367.284672333564 200 0.33333333333333 1 -nan -nan
842	8625816 5534 502510 9187924 28.58496 432.49152 217 120 120 26040 3124800
843	8631350 1064 394254 9192875 23.372064 432.706912 42 29 29 1218 35322
845	8632414 24844 302088 9202668 18.369600334453 433.153120393872 800 5 120 18536 603634
852	8657258 3191 3453588 7835406 164.651351765653 369.642577903598 100 76 76 7600 577600
854	8660449 3200 3469352 7874693 165.385152333564 371.324352333564 100 76 76 7600 577600
855	8663649 3802 16168 9196898 1 432.883247167971 123 76 76 9348 710448
856	8667451 8071 3453588 7874693 164.651351765653 371.324352333564 200 0.5 1 -nan -nan
860	8675522 5319 441105 9204044 25.75104 433.22112 209 120 120 25080 3009600
861	8680841 1043 616860 9184274 33.5696 432.327968 41 29 29 1189 34481
862	8681884 13079 304250 9205073 18.493968584919 433.248192584919 402 5 120 36674 4063810
863	8694963 35823 244934 9204262 15.015824334453 433.225696686352 1140 5 34 27615 782297
870	8730786 3187 3435216 7614115 163.788209275485 359.259221802593 100 76 76 7600 577600
872	8733973 3200 3450263 7621664 164.494272333564 359.627712333564 100 76 76 7600 577600
873	8737173 3492 16169 9193387 1 432.735859494072 112 76 76 8512 646912
874	8740665 7862 3435216 7621664 163.788209275485 359.627712333564 200 0.5 1 -nan -nan
878	8748527 5132 448573 9201182 26.11968 433.09824 201 120 120 24120 2894400
879	8753659 1047 591487 9195167 32.46944 432.818176 41 29 29 1189 34481
880	8754706 5582 359871 9132814 21.640096546614 429.958240546614 177 5 34 5133 150003
881	8760288 38212 302089 9202686 18.369600334453 433.15312049778 1223 5 34 30266 861846
888	8798500 3183 3385897 7951376 161.549740255351 374.790334027838 100 76 76 7600 577600
890	8801683 3200 3394390 7968628 161.929152333564 375.594432333564 100 76 76 7600 577600
891	8804883 3419 16170 9205886 1 433.276527464798 110 76 76 8360 635360
892	8808302 8038 3385897 7968628 161.549740255351 375.594432333564 200 0.25 1 -nan -nan
896	8816340 5034 505959 9187731 28.70784 432.48384 197 120 120 23640 2836800
897	8821374 1047 599983 9160198 32.818848 431.195744 41 29 29 1189 34481
899	8822421 26312 346206 9200012 20.914112421456 433.030240421456 852 5 34 19733 552035
906	8848733 3184 3380918 7209050 161.339134651587 340.535298635577 100 76 76 7600 577600
908	8851917 3200 3392164 7246067 161.829312333564 342.316992333564 100 76 76 7600 577600
909	8855117 4533 16171 9206267 1 433.300601660564 146 76 76 11096 843296
910	8859650 8049 3380918 7246067 161.339134651587 342.316992333564 200 0.5 1 -nan -nan
914	8867699 5616 682488 9161414 36.56448 431.25504 220 120 120 26400 3168000
915	8873315 1019 566436 9001320 31.358016 423.992752 40 29 29 1160 33640
916	8874334 33 7057599 7057599 333.454272421456 333.454272421456 1 120 120 120 14400
917	8874367 50570 359864 9202674 21.64009636376 433.153120421456 1606 5 120 72012 5776860
924	8924937 3192 3398844 8879407 162.126763041376 418.33802559346 100 76 76 7600 577600
926	8928129 3200 3405064 8904859 162.420672333564 419.508672333564 100 76 76 7600 577600
927	8931329 2737 16172 9105654 1 428.752617272241 89 76 76 6764 514064
928	8934066 7921 3398844 8904859 162.126763041376 419.508672333564 200 0.5 1 -nan -nan
932	8941987 4426 538258 9106357 30.17472 428.79744 174 120 120 20880 2505600
933	8946413 1044 374508 8947960 22.400144 421.517952 41 29 29 1189 34481
934	8947457 7765 360134 9176237 21.643041085265 431.924320546614 245 5 120 13208 1116538
935	8955222 34904 270703 9202640 16.524544334453 433.153120335121 1114 5 120 46996 3646148
942	8990126 3187 3396313 7657662 162.020531713039 361.393153368204 100 76 76 7600 577600
944	8993313 3200 3407981 7682584 162.551232333564 362.599872333564 100 76 76 7600 577600
945	8996513 3705 16173 9191475 1 432.650991188148 120 76 76 9120 693120
946	9000218 8046 3396313 7682584 162.020531713039 362.599872333564 200 0.5 1 -nan -nan
950	9008264 5165 443646 9195783 25.87392 432.85248 203 120 120 24360 2923200
951	9013429 1043 601187 9198253 32.873936 432.950032 41 29 29 1189 34481
952	9014472 28875 348957 9186650 21.064784584919 432.415840584919 891 5 120 82778 9238486
953	9043347 33691 330371 9202684 20.044192343176 433.153120463368 1071 5 34 25686 720164
960	9077038 3188 3405928 7241658 162.462462711407 342.088302076878 100 76 76 7600 577600
962	9080226 3200 3410235 7251490 162.658752333564 342.555072333564 100 76 76 7600 577600
963	9083426 4700 16174 9203270 1 433.189581529435 151 76 76 11476 872176
964	9088126 7841 3405928 7251490 162.462462711407 342.555072333564 200 0.5 1 -nan -nan
968	9095967 5988 465108 9120262 26.86464 429.41952 235 120 120 28200 3384000
969	9101955 1054 560371 9133749 31.107664 430.007952 41 29 29 1189 34481
971	9103009 33204 270704 9200010 16.524544334453 433.030240393872 1060 5 120 39685 2925265
978	9136213 3190 3464996 7632183 165.170362933877 360.140762145771 100 76 76 7600 577600
980	9139403 3200 3474126 7644200 165.607872333564 360.741312333564 100 76 76 7600 577600
981	9142603 3605 16175 9201282 1 433.105719543822 116 76 76 8816 670016
982	9146208 7918 3464996 7644200 165.170362933877 360.741312333564 200 0.5 1 -nan -nan
986	9154126 5255 454400 9184926 26.36544 432.36096 206 120 120 24720 2966400
987	9159381 1071 403946 9144674 23.867248 430.497968 42 29 29 1218 35322
988	9160452 8338 330385 9200030 20.04419259794 433.03024059794 272 5 34 7877 229661
989	9168790 41612 330594 9205873 20.046817035874 433.27600045242 1324 5 120 52694 3876926
996	9210402 3188 3452446 6940155 164.60159198853 328.048940620239 100 76 76 7600 577600
998	9213590 3200 3468394 6960989 165.346752333564 329.022912333564 100 76 76 7600 577600
999	9216790 5468 16176 9132775 1 429.9576167843 175 76 76 13300 1010800
1000	9222258 8288 3452446 6960989 164.60159198853 329.022912333564 200 0.5 1 -nan -nan
1004	9230546 6766 524267 9136889 29.568 430.1568 255 120 120 30600 3672000
1005	9237312 1117 416237 9157628 24.48416 431.072624 42 29 29 1218 35322
1006	9238429 7072 333493 9165928 20.191248534138 431.432800534138 214 5 120 13126 1211520
1007	9245501 38957 333207 9205825 20.183824534138 433.276000333954 1196 5 120 40878 2706348
1014	9284458 3289 3505639 7798700 167.104747710267 367.988077664395 100 76 76 7600 577600
1016	9287747 3300 3515020 7812841 167.581632333564 368.628672333564 100 76 76 7600 577600
1017	9291047 3908 16177 9129551 1 429.838105844641 122 76 76 9272 704672
1018	9294955 8297 3505639 7812841 167.104747710267 368.628672333564 200 0.5 1 -nan -nan
1022	9303252 5410 586664 9130652 32.26368 429.90336 204 120 120 24480 2937600
1023	9308662 1084 580131 9152559 31.98096 430.867424 41 29 29 1189 34481
1025	9309746 43627 333200 9205863 20.183824357641 433.276000431439 1338 5 120 38282 1656338
1032	9353373 3287 3423140 8113094 163.253684653881 382.54355598945 100 76 76 7600 577600
1034	9356660 3300 3444890 8120129 164.248512333564 382.867392333564 100 76 76 7600 577600
1035	9359960 3341 16178 9127571 1 429.749951988948 104 76 76 7904 600704
1036	9363301 8112 3423140 8120129 163.253684653881 382.867392333564 200 0.5 1 -nan -nan
1040	9371413 5174 451376 9128041 26.24256 429.78048 195 120 120 23400 2808000
1041	9376587 1091 586490 9194891 32.25936 432.80568 41 29 29 1189 34481
1043	9377678 27670 267923 9194826 16.365136334453 432.798768411848 854 5 34 19734 549574
1050	9405348 3290 3421381 7828832 163.161758614772 369.361216087668 100 76 76 7600 577600
1052	9408638 3300 3464124 7846063 165.124032333564 370.087872333564 100 76 76 7600 577600
1053	9411938 3892 16179 9129527 1 429.834316955984 122 76 76 9272 704672
1054	9415830 8347 3421381 7846063 163.161758614772 370.087872333564 200 0.5 1 -nan -nan
1058	9424177 5474 436219 9134094 25.50528 430.02624 207 120 120 24840 2980800
1059	9429651 1086 622461 9152111 33.831728 430.842768 41 29 29 1189 34481
1060	9430737 6760 333209 9171877 20.183824559244 431.735040559244 207 5 34 5953 173043
1061	9437497 36912 315394 9205875 19.181184337057 433.276000486069 1137 5 34 27629 777637
1068	9474409 3284 3402108 8402217 162.284464512803 395.966778700929 100 76 76 7600 577600
1070	9477693 3300 3415735 8416777 162.904512333564 396.645312333564 100 76 76 7600 577600
1071	9480993 3301 16180 9197939 1 432.93286036011 104 76 76 7904 600704
1072	9484294 8191 3402108 8416777 162.284464512803 396.645312333564 200 0.33333333333333 1 -nan -nan
1076	9492485 5134 538218 9204069 30.17472 433.22112 195 120 120 23400 2808000
1077	9497619 1089 540415 9203119 30.250896 433.181728 41 29 29 1189 34481
1078	9498708 2228 328088 9107845 19.919296934713 428.852320474592 69 5 34 2059 62595
1079	9500936 34574 267924 9205827 16.365136334453 433.276000339748 1066 5 34 25794 725002
1086	9535510 3290 3408947 7892008 162.598276131831 372.049467974121 100 76 76 7600 577600
1088	9538800 3300 3416509 7900841 162.935232333564 372.422592333564 100 76 76 7600 577600
1089	9542100 3815 16181 9196352 1 432.865886311322 119 76 76 9044 687344
1090	9545915 8172 3408947 7900841 162.598276131831 372.422592333564 200 0.33333333333333 1 -nan -nan
1094	9554087 5621 494564 9204021 28.20864 433.22112 212 120 120 25440 3052800
1095	9559708 1090 574803 9195444 31.745456 432.836752 41 29 29 1189 34481
1097	9560798 20890 233194 9205861 14.317184334453 433.276000402643 647 5 34 13482 368076
1104	9581688 3292 3452071 8372080 164.577294001506 394.470788704523 100 76 76 7600 577600
1106	9584980 3300 3464543 8396357 165.147072333564 395.669952333564 100 76 76 7600 577600
1107	9588280 3106 16182 9185232 1 432.366657845465 97 76 76 7372 560272
1108	9591386 8159 3452071 8396357 164.577294001506 395.669952333564 200 0.5 1 -nan -nan
1112	9599545 4930 589963 9187969 32.39424 432.49152 186 120 120 22320 2678400
1113	9604475 1058 588855 8924199 32.350336 420.404032 40 29 29 1160 33640
1114	9605533 8729 331509 9205885 20.093600611071 433.276000611071 267 5 34 7709 224247
1115	9614262 26828 327993 9200020 19.91667235215 433.030240441768 842 5 34 19512 545002
