version 2
run CSMA-5-20160818-12:13:49-22229
attr beaconInterval 10s
attr configname CSMA
attr datetime 20160818-12:13:49
attr experiment CSMA
attr inifile simulations/omnetpp.ini
attr iterationvars "$packetLength=76B, $sendInt=2.25, $beaconInterval=10s, $0=10s/2, $1=3 * 10s"
attr iterationvars2 "$packetLength=76B, $sendInt=2.25, $beaconInterval=10s, $0=10s/2, $1=3 * 10s, $repetition=0"
attr measurement "$packetLength=76B, $sendInt=2.25, $beaconInterval=10s, $0=10s/2, $1=3 * 10s"
attr network multi_gateway.Net802154MultiGateway
attr packetLength 76B
attr processid 22229
attr repetition 0
attr replication #0
attr resultdir ../results
attr runnumber 5
attr seedset 0
attr sendInt 2.25
param **.configurator.addStaticRoutes false
param **.dumpRoutes false
param **.dumpTopology false
param **.host[*].**.gpsr.beaconInterval "${beaconInterval = 10s}"
param **.host[*].**.gpsr.maxJitter ${$beaconInterval/2}
param **.host[*].**.gpsr.neighborValidityInterval "${3 * $beaconInterval}"
param **.host[*].**.gpsr.positionByteLength "2 B"
param **.host[*].**.gpsr.routingStrategy "\"StraightestPath\""
param **.host[*].**.trafficgen.continueSendingDummyPackets true
param **.host[*].**.trafficgen.coolDownDuration 15s
param **.host[*].**.trafficgen.destAddresses "\"host[0].wrappedHost(modulepath)\""
param **.host[*].**.trafficgen.packetLength "${packetLength = 76B}"
param **.host[*].**.trafficgen.sendInterval "exponential(${sendInt=1.0..2.5 step 0.25}s)"
param **.host[*].**.trafficgen.warmUpDuration 160s
param **.host[*].**.wlan[*].mac.queueLength 30
param **.host[*].**.wlan[*].macType "\"Ieee802154NarrowbandMac\""
param **.host[*].**.wlan[*].radio.receiver.minInterferencePower "-100 dBm"
param **.host[*].hostType "\"SimpleHost\""
param **.host[*].mobilityType "\"StaticConcentricWrappingMobility\""
param **.host[0].**.trafficgen.numPackets 0
param **.host[1..].**.trafficgen.numPackets 100
param **.numHosts 62
param **.radioMedium.rangeFilter "\"interferenceRange\""
param **.routingTable.addressType "\"modulepath\""
param **.routingTableType "\"GenericRoutingTable\""

vector 9  Net802154MultiGateway.host[0].wrappedHost.trafficgen  sentDummyPk:vector(packetBytes)  ETV
attr interpolationmode  none
attr source  sentDummyPk
attr title  "dummy packets sent, vector(packetBytes)"
vector 23  Net802154MultiGateway.host[1].wrappedHost.trafficgen  sentDummyPk:vector(packetBytes)  ETV
attr interpolationmode  none
attr source  sentDummyPk
attr title  "dummy packets sent, vector(packetBytes)"
vector 37  Net802154MultiGateway.host[2].wrappedHost.trafficgen  sentDummyPk:vector(packetBytes)  ETV
attr interpolationmode  none
attr source  sentDummyPk
attr title  "dummy packets sent, vector(packetBytes)"
vector 51  Net802154MultiGateway.host[3].wrappedHost.trafficgen  sentDummyPk:vector(packetBytes)  ETV
attr interpolationmode  none
attr source  sentDummyPk
attr title  "dummy packets sent, vector(packetBytes)"
vector 65  Net802154MultiGateway.host[4].wrappedHost.trafficgen  sentDummyPk:vector(packetBytes)  ETV
attr interpolationmode  none
attr source  sentDummyPk
attr title  "dummy packets sent, vector(packetBytes)"
vector 79  Net802154MultiGateway.host[5].wrappedHost.trafficgen  sentDummyPk:vector(packetBytes)  ETV
attr interpolationmode  none
attr source  sentDummyPk
attr title  "dummy packets sent, vector(packetBytes)"
vector 93  Net802154MultiGateway.host[6].wrappedHost.trafficgen  sentDummyPk:vector(packetBytes)  ETV
attr interpolationmode  none
attr source  sentDummyPk
attr title  "dummy packets sent, vector(packetBytes)"
vector 107  Net802154MultiGateway.host[7].wrappedHost.trafficgen  sentDummyPk:vector(packetBytes)  ETV
attr interpolationmode  none
attr source  sentDummyPk
attr title  "dummy packets sent, vector(packetBytes)"
vector 121  Net802154MultiGateway.host[8].wrappedHost.trafficgen  sentDummyPk:vector(packetBytes)  ETV
attr interpolationmode  none
attr source  sentDummyPk
attr title  "dummy packets sent, vector(packetBytes)"
vector 135  Net802154MultiGateway.host[9].wrappedHost.trafficgen  sentDummyPk:vector(packetBytes)  ETV
attr interpolationmode  none
attr source  sentDummyPk
attr title  "dummy packets sent, vector(packetBytes)"
vector 149  Net802154MultiGateway.host[10].wrappedHost.trafficgen  sentDummyPk:vector(packetBytes)  ETV
attr interpolationmode  none
attr source  sentDummyPk
attr title  "dummy packets sent, vector(packetBytes)"
vector 163  Net802154MultiGateway.host[11].wrappedHost.trafficgen  sentDummyPk:vector(packetBytes)  ETV
attr interpolationmode  none
attr source  sentDummyPk
attr title  "dummy packets sent, vector(packetBytes)"
vector 177  Net802154MultiGateway.host[12].wrappedHost.trafficgen  sentDummyPk:vector(packetBytes)  ETV
attr interpolationmode  none
attr source  sentDummyPk
attr title  "dummy packets sent, vector(packetBytes)"
vector 191  Net802154MultiGateway.host[13].wrappedHost.trafficgen  sentDummyPk:vector(packetBytes)  ETV
attr interpolationmode  none
attr source  sentDummyPk
attr title  "dummy packets sent, vector(packetBytes)"
vector 205  Net802154MultiGateway.host[14].wrappedHost.trafficgen  sentDummyPk:vector(packetBytes)  ETV
attr interpolationmode  none
attr source  sentDummyPk
attr title  "dummy packets sent, vector(packetBytes)"
vector 219  Net802154MultiGateway.host[15].wrappedHost.trafficgen  sentDummyPk:vector(packetBytes)  ETV
attr interpolationmode  none
attr source  sentDummyPk
attr title  "dummy packets sent, vector(packetBytes)"
vector 233  Net802154MultiGateway.host[16].wrappedHost.trafficgen  sentDummyPk:vector(packetBytes)  ETV
attr interpolationmode  none
attr source  sentDummyPk
attr title  "dummy packets sent, vector(packetBytes)"
vector 247  Net802154MultiGateway.host[17].wrappedHost.trafficgen  sentDummyPk:vector(packetBytes)  ETV
attr interpolationmode  none
attr source  sentDummyPk
attr title  "dummy packets sent, vector(packetBytes)"
vector 261  Net802154MultiGateway.host[18].wrappedHost.trafficgen  sentDummyPk:vector(packetBytes)  ETV
attr interpolationmode  none
attr source  sentDummyPk
attr title  "dummy packets sent, vector(packetBytes)"
vector 275  Net802154MultiGateway.host[19].wrappedHost.trafficgen  sentDummyPk:vector(packetBytes)  ETV
attr interpolationmode  none
attr source  sentDummyPk
attr title  "dummy packets sent, vector(packetBytes)"
vector 289  Net802154MultiGateway.host[20].wrappedHost.trafficgen  sentDummyPk:vector(packetBytes)  ETV
attr interpolationmode  none
attr source  sentDummyPk
attr title  "dummy packets sent, vector(packetBytes)"
vector 303  Net802154MultiGateway.host[21].wrappedHost.trafficgen  sentDummyPk:vector(packetBytes)  ETV
attr interpolationmode  none
attr source  sentDummyPk
attr title  "dummy packets sent, vector(packetBytes)"
vector 317  Net802154MultiGateway.host[22].wrappedHost.trafficgen  sentDummyPk:vector(packetBytes)  ETV
attr interpolationmode  none
attr source  sentDummyPk
attr title  "dummy packets sent, vector(packetBytes)"
vector 331  Net802154MultiGateway.host[23].wrappedHost.trafficgen  sentDummyPk:vector(packetBytes)  ETV
attr interpolationmode  none
attr source  sentDummyPk
attr title  "dummy packets sent, vector(packetBytes)"
vector 345  Net802154MultiGateway.host[24].wrappedHost.trafficgen  sentDummyPk:vector(packetBytes)  ETV
attr interpolationmode  none
attr source  sentDummyPk
attr title  "dummy packets sent, vector(packetBytes)"
vector 359  Net802154MultiGateway.host[25].wrappedHost.trafficgen  sentDummyPk:vector(packetBytes)  ETV
attr interpolationmode  none
attr source  sentDummyPk
attr title  "dummy packets sent, vector(packetBytes)"
vector 373  Net802154MultiGateway.host[26].wrappedHost.trafficgen  sentDummyPk:vector(packetBytes)  ETV
attr interpolationmode  none
attr source  sentDummyPk
attr title  "dummy packets sent, vector(packetBytes)"
vector 387  Net802154MultiGateway.host[27].wrappedHost.trafficgen  sentDummyPk:vector(packetBytes)  ETV
attr interpolationmode  none
attr source  sentDummyPk
attr title  "dummy packets sent, vector(packetBytes)"
vector 401  Net802154MultiGateway.host[28].wrappedHost.trafficgen  sentDummyPk:vector(packetBytes)  ETV
attr interpolationmode  none
attr source  sentDummyPk
attr title  "dummy packets sent, vector(packetBytes)"
vector 415  Net802154MultiGateway.host[29].wrappedHost.trafficgen  sentDummyPk:vector(packetBytes)  ETV
attr interpolationmode  none
attr source  sentDummyPk
attr title  "dummy packets sent, vector(packetBytes)"
vector 429  Net802154MultiGateway.host[30].wrappedHost.trafficgen  sentDummyPk:vector(packetBytes)  ETV
attr interpolationmode  none
attr source  sentDummyPk
attr title  "dummy packets sent, vector(packetBytes)"
vector 443  Net802154MultiGateway.host[31].wrappedHost.trafficgen  sentDummyPk:vector(packetBytes)  ETV
attr interpolationmode  none
attr source  sentDummyPk
attr title  "dummy packets sent, vector(packetBytes)"
vector 457  Net802154MultiGateway.host[32].wrappedHost.trafficgen  sentDummyPk:vector(packetBytes)  ETV
attr interpolationmode  none
attr source  sentDummyPk
attr title  "dummy packets sent, vector(packetBytes)"
vector 471  Net802154MultiGateway.host[33].wrappedHost.trafficgen  sentDummyPk:vector(packetBytes)  ETV
attr interpolationmode  none
attr source  sentDummyPk
attr title  "dummy packets sent, vector(packetBytes)"
vector 485  Net802154MultiGateway.host[34].wrappedHost.trafficgen  sentDummyPk:vector(packetBytes)  ETV
attr interpolationmode  none
attr source  sentDummyPk
attr title  "dummy packets sent, vector(packetBytes)"
vector 499  Net802154MultiGateway.host[35].wrappedHost.trafficgen  sentDummyPk:vector(packetBytes)  ETV
attr interpolationmode  none
attr source  sentDummyPk
attr title  "dummy packets sent, vector(packetBytes)"
vector 513  Net802154MultiGateway.host[36].wrappedHost.trafficgen  sentDummyPk:vector(packetBytes)  ETV
attr interpolationmode  none
attr source  sentDummyPk
attr title  "dummy packets sent, vector(packetBytes)"
vector 527  Net802154MultiGateway.host[37].wrappedHost.trafficgen  sentDummyPk:vector(packetBytes)  ETV
attr interpolationmode  none
attr source  sentDummyPk
attr title  "dummy packets sent, vector(packetBytes)"
vector 541  Net802154MultiGateway.host[38].wrappedHost.trafficgen  sentDummyPk:vector(packetBytes)  ETV
attr interpolationmode  none
attr source  sentDummyPk
attr title  "dummy packets sent, vector(packetBytes)"
vector 555  Net802154MultiGateway.host[39].wrappedHost.trafficgen  sentDummyPk:vector(packetBytes)  ETV
attr interpolationmode  none
attr source  sentDummyPk
attr title  "dummy packets sent, vector(packetBytes)"
vector 569  Net802154MultiGateway.host[40].wrappedHost.trafficgen  sentDummyPk:vector(packetBytes)  ETV
attr interpolationmode  none
attr source  sentDummyPk
attr title  "dummy packets sent, vector(packetBytes)"
vector 583  Net802154MultiGateway.host[41].wrappedHost.trafficgen  sentDummyPk:vector(packetBytes)  ETV
attr interpolationmode  none
attr source  sentDummyPk
attr title  "dummy packets sent, vector(packetBytes)"
vector 597  Net802154MultiGateway.host[42].wrappedHost.trafficgen  sentDummyPk:vector(packetBytes)  ETV
attr interpolationmode  none
attr source  sentDummyPk
attr title  "dummy packets sent, vector(packetBytes)"
vector 611  Net802154MultiGateway.host[43].wrappedHost.trafficgen  sentDummyPk:vector(packetBytes)  ETV
attr interpolationmode  none
attr source  sentDummyPk
attr title  "dummy packets sent, vector(packetBytes)"
vector 625  Net802154MultiGateway.host[44].wrappedHost.trafficgen  sentDummyPk:vector(packetBytes)  ETV
attr interpolationmode  none
attr source  sentDummyPk
attr title  "dummy packets sent, vector(packetBytes)"
vector 639  Net802154MultiGateway.host[45].wrappedHost.trafficgen  sentDummyPk:vector(packetBytes)  ETV
attr interpolationmode  none
attr source  sentDummyPk
attr title  "dummy packets sent, vector(packetBytes)"
vector 653  Net802154MultiGateway.host[46].wrappedHost.trafficgen  sentDummyPk:vector(packetBytes)  ETV
attr interpolationmode  none
attr source  sentDummyPk
attr title  "dummy packets sent, vector(packetBytes)"
vector 667  Net802154MultiGateway.host[47].wrappedHost.trafficgen  sentDummyPk:vector(packetBytes)  ETV
attr interpolationmode  none
attr source  sentDummyPk
attr title  "dummy packets sent, vector(packetBytes)"
vector 681  Net802154MultiGateway.host[48].wrappedHost.trafficgen  sentDummyPk:vector(packetBytes)  ETV
attr interpolationmode  none
attr source  sentDummyPk
attr title  "dummy packets sent, vector(packetBytes)"
vector 695  Net802154MultiGateway.host[49].wrappedHost.trafficgen  sentDummyPk:vector(packetBytes)  ETV
attr interpolationmode  none
attr source  sentDummyPk
attr title  "dummy packets sent, vector(packetBytes)"
vector 709  Net802154MultiGateway.host[50].wrappedHost.trafficgen  sentDummyPk:vector(packetBytes)  ETV
attr interpolationmode  none
attr source  sentDummyPk
attr title  "dummy packets sent, vector(packetBytes)"
vector 723  Net802154MultiGateway.host[51].wrappedHost.trafficgen  sentDummyPk:vector(packetBytes)  ETV
attr interpolationmode  none
attr source  sentDummyPk
attr title  "dummy packets sent, vector(packetBytes)"
vector 737  Net802154MultiGateway.host[52].wrappedHost.trafficgen  sentDummyPk:vector(packetBytes)  ETV
attr interpolationmode  none
attr source  sentDummyPk
attr title  "dummy packets sent, vector(packetBytes)"
vector 751  Net802154MultiGateway.host[53].wrappedHost.trafficgen  sentDummyPk:vector(packetBytes)  ETV
attr interpolationmode  none
attr source  sentDummyPk
attr title  "dummy packets sent, vector(packetBytes)"
vector 765  Net802154MultiGateway.host[54].wrappedHost.trafficgen  sentDummyPk:vector(packetBytes)  ETV
attr interpolationmode  none
attr source  sentDummyPk
attr title  "dummy packets sent, vector(packetBytes)"
vector 779  Net802154MultiGateway.host[55].wrappedHost.trafficgen  sentDummyPk:vector(packetBytes)  ETV
attr interpolationmode  none
attr source  sentDummyPk
attr title  "dummy packets sent, vector(packetBytes)"
vector 793  Net802154MultiGateway.host[56].wrappedHost.trafficgen  sentDummyPk:vector(packetBytes)  ETV
attr interpolationmode  none
attr source  sentDummyPk
attr title  "dummy packets sent, vector(packetBytes)"
vector 807  Net802154MultiGateway.host[57].wrappedHost.trafficgen  sentDummyPk:vector(packetBytes)  ETV
attr interpolationmode  none
attr source  sentDummyPk
attr title  "dummy packets sent, vector(packetBytes)"
vector 821  Net802154MultiGateway.host[58].wrappedHost.trafficgen  sentDummyPk:vector(packetBytes)  ETV
attr interpolationmode  none
attr source  sentDummyPk
attr title  "dummy packets sent, vector(packetBytes)"
vector 835  Net802154MultiGateway.host[59].wrappedHost.trafficgen  sentDummyPk:vector(packetBytes)  ETV
attr interpolationmode  none
attr source  sentDummyPk
attr title  "dummy packets sent, vector(packetBytes)"
vector 849  Net802154MultiGateway.host[60].wrappedHost.trafficgen  sentDummyPk:vector(packetBytes)  ETV
attr interpolationmode  none
attr source  sentDummyPk
attr title  "dummy packets sent, vector(packetBytes)"
vector 863  Net802154MultiGateway.host[61].wrappedHost.trafficgen  sentDummyPk:vector(packetBytes)  ETV
attr interpolationmode  none
attr source  sentDummyPk
attr title  "dummy packets sent, vector(packetBytes)"
vector 678  Net802154MultiGateway.host[48].wrappedHost.trafficgen  sentPk:vector(packetBytes)  ETV
attr interpolationmode  none
attr source  sentPk
attr title  "packets sent, vector(packetBytes)"
vector 682  Net802154MultiGateway.host[48].wrappedHost.trafficgen  PRR:vector  ETV
attr interpolationmode  none
attr source  count(sinkRcvdPk)/count(sentPk)
attr title  "PRR, vector"
vector 244  Net802154MultiGateway.host[17].wrappedHost.trafficgen  sentPk:vector(packetBytes)  ETV
attr interpolationmode  none
attr source  sentPk
attr title  "packets sent, vector(packetBytes)"
vector 248  Net802154MultiGateway.host[17].wrappedHost.trafficgen  PRR:vector  ETV
attr interpolationmode  none
attr source  count(sinkRcvdPk)/count(sentPk)
attr title  "PRR, vector"
vector 680  Net802154MultiGateway.host[48].wrappedHost.trafficgen  sinkRcvdPk:vector(packetBytes)  ETV
attr interpolationmode  none
attr source  sinkRcvdPk
attr title  "own packets received by sink, vector(packetBytes)"
vector 5  Net802154MultiGateway.host[0].wrappedHost.trafficgen  rcvdPk:vector(packetBytes)  ETV
attr interpolationmode  none
attr source  rcvdPk
attr title  "packets received, vector(packetBytes)"
vector 7  Net802154MultiGateway.host[0].wrappedHost.trafficgen  endToEndDelay:vector  ETV
attr interpolationmode  none
attr source  messageAge(rcvdPk)
attr title  "end-to-end delay, vector"
attr unit  s
vector 246  Net802154MultiGateway.host[17].wrappedHost.trafficgen  sinkRcvdPk:vector(packetBytes)  ETV
attr interpolationmode  none
attr source  sinkRcvdPk
attr title  "own packets received by sink, vector(packetBytes)"
vector 622  Net802154MultiGateway.host[44].wrappedHost.trafficgen  sentPk:vector(packetBytes)  ETV
attr interpolationmode  none
attr source  sentPk
attr title  "packets sent, vector(packetBytes)"
vector 626  Net802154MultiGateway.host[44].wrappedHost.trafficgen  PRR:vector  ETV
attr interpolationmode  none
attr source  count(sinkRcvdPk)/count(sentPk)
attr title  "PRR, vector"
vector 624  Net802154MultiGateway.host[44].wrappedHost.trafficgen  sinkRcvdPk:vector(packetBytes)  ETV
attr interpolationmode  none
attr source  sinkRcvdPk
attr title  "own packets received by sink, vector(packetBytes)"
vector 832  Net802154MultiGateway.host[59].wrappedHost.trafficgen  sentPk:vector(packetBytes)  ETV
attr interpolationmode  none
attr source  sentPk
attr title  "packets sent, vector(packetBytes)"
vector 836  Net802154MultiGateway.host[59].wrappedHost.trafficgen  PRR:vector  ETV
attr interpolationmode  none
attr source  count(sinkRcvdPk)/count(sentPk)
attr title  "PRR, vector"
vector 834  Net802154MultiGateway.host[59].wrappedHost.trafficgen  sinkRcvdPk:vector(packetBytes)  ETV
attr interpolationmode  none
attr source  sinkRcvdPk
attr title  "own packets received by sink, vector(packetBytes)"
vector 370  Net802154MultiGateway.host[26].wrappedHost.trafficgen  sentPk:vector(packetBytes)  ETV
attr interpolationmode  none
attr source  sentPk
attr title  "packets sent, vector(packetBytes)"
vector 374  Net802154MultiGateway.host[26].wrappedHost.trafficgen  PRR:vector  ETV
attr interpolationmode  none
attr source  count(sinkRcvdPk)/count(sentPk)
attr title  "PRR, vector"
vector 372  Net802154MultiGateway.host[26].wrappedHost.trafficgen  sinkRcvdPk:vector(packetBytes)  ETV
attr interpolationmode  none
attr source  sinkRcvdPk
attr title  "own packets received by sink, vector(packetBytes)"
vector 174  Net802154MultiGateway.host[12].wrappedHost.trafficgen  sentPk:vector(packetBytes)  ETV
attr interpolationmode  none
attr source  sentPk
attr title  "packets sent, vector(packetBytes)"
vector 178  Net802154MultiGateway.host[12].wrappedHost.trafficgen  PRR:vector  ETV
attr interpolationmode  none
attr source  count(sinkRcvdPk)/count(sentPk)
attr title  "PRR, vector"
vector 176  Net802154MultiGateway.host[12].wrappedHost.trafficgen  sinkRcvdPk:vector(packetBytes)  ETV
attr interpolationmode  none
attr source  sinkRcvdPk
attr title  "own packets received by sink, vector(packetBytes)"
vector 734  Net802154MultiGateway.host[52].wrappedHost.trafficgen  sentPk:vector(packetBytes)  ETV
attr interpolationmode  none
attr source  sentPk
attr title  "packets sent, vector(packetBytes)"
vector 738  Net802154MultiGateway.host[52].wrappedHost.trafficgen  PRR:vector  ETV
attr interpolationmode  none
attr source  count(sinkRcvdPk)/count(sentPk)
attr title  "PRR, vector"
vector 736  Net802154MultiGateway.host[52].wrappedHost.trafficgen  sinkRcvdPk:vector(packetBytes)  ETV
attr interpolationmode  none
attr source  sinkRcvdPk
attr title  "own packets received by sink, vector(packetBytes)"
vector 552  Net802154MultiGateway.host[39].wrappedHost.trafficgen  sentPk:vector(packetBytes)  ETV
attr interpolationmode  none
attr source  sentPk
attr title  "packets sent, vector(packetBytes)"
vector 556  Net802154MultiGateway.host[39].wrappedHost.trafficgen  PRR:vector  ETV
attr interpolationmode  none
attr source  count(sinkRcvdPk)/count(sentPk)
attr title  "PRR, vector"
vector 554  Net802154MultiGateway.host[39].wrappedHost.trafficgen  sinkRcvdPk:vector(packetBytes)  ETV
attr interpolationmode  none
attr source  sinkRcvdPk
attr title  "own packets received by sink, vector(packetBytes)"
vector 160  Net802154MultiGateway.host[11].wrappedHost.trafficgen  sentPk:vector(packetBytes)  ETV
attr interpolationmode  none
attr source  sentPk
attr title  "packets sent, vector(packetBytes)"
vector 164  Net802154MultiGateway.host[11].wrappedHost.trafficgen  PRR:vector  ETV
attr interpolationmode  none
attr source  count(sinkRcvdPk)/count(sentPk)
attr title  "PRR, vector"
vector 162  Net802154MultiGateway.host[11].wrappedHost.trafficgen  sinkRcvdPk:vector(packetBytes)  ETV
attr interpolationmode  none
attr source  sinkRcvdPk
attr title  "own packets received by sink, vector(packetBytes)"
vector 846  Net802154MultiGateway.host[60].wrappedHost.trafficgen  sentPk:vector(packetBytes)  ETV
attr interpolationmode  none
attr source  sentPk
attr title  "packets sent, vector(packetBytes)"
vector 850  Net802154MultiGateway.host[60].wrappedHost.trafficgen  PRR:vector  ETV
attr interpolationmode  none
attr source  count(sinkRcvdPk)/count(sentPk)
attr title  "PRR, vector"
vector 118  Net802154MultiGateway.host[8].wrappedHost.trafficgen  sentPk:vector(packetBytes)  ETV
attr interpolationmode  none
attr source  sentPk
attr title  "packets sent, vector(packetBytes)"
vector 122  Net802154MultiGateway.host[8].wrappedHost.trafficgen  PRR:vector  ETV
attr interpolationmode  none
attr source  count(sinkRcvdPk)/count(sentPk)
attr title  "PRR, vector"
vector 120  Net802154MultiGateway.host[8].wrappedHost.trafficgen  sinkRcvdPk:vector(packetBytes)  ETV
attr interpolationmode  none
attr source  sinkRcvdPk
attr title  "own packets received by sink, vector(packetBytes)"
vector 664  Net802154MultiGateway.host[47].wrappedHost.trafficgen  sentPk:vector(packetBytes)  ETV
attr interpolationmode  none
attr source  sentPk
attr title  "packets sent, vector(packetBytes)"
vector 668  Net802154MultiGateway.host[47].wrappedHost.trafficgen  PRR:vector  ETV
attr interpolationmode  none
attr source  count(sinkRcvdPk)/count(sentPk)
attr title  "PRR, vector"
vector 848  Net802154MultiGateway.host[60].wrappedHost.trafficgen  sinkRcvdPk:vector(packetBytes)  ETV
attr interpolationmode  none
attr source  sinkRcvdPk
attr title  "own packets received by sink, vector(packetBytes)"
vector 666  Net802154MultiGateway.host[47].wrappedHost.trafficgen  sinkRcvdPk:vector(packetBytes)  ETV
attr interpolationmode  none
attr source  sinkRcvdPk
attr title  "own packets received by sink, vector(packetBytes)"
vector 76  Net802154MultiGateway.host[5].wrappedHost.trafficgen  sentPk:vector(packetBytes)  ETV
attr interpolationmode  none
attr source  sentPk
attr title  "packets sent, vector(packetBytes)"
vector 80  Net802154MultiGateway.host[5].wrappedHost.trafficgen  PRR:vector  ETV
attr interpolationmode  none
attr source  count(sinkRcvdPk)/count(sentPk)
attr title  "PRR, vector"
vector 78  Net802154MultiGateway.host[5].wrappedHost.trafficgen  sinkRcvdPk:vector(packetBytes)  ETV
attr interpolationmode  none
attr source  sinkRcvdPk
attr title  "own packets received by sink, vector(packetBytes)"
vector 342  Net802154MultiGateway.host[24].wrappedHost.trafficgen  sentPk:vector(packetBytes)  ETV
attr interpolationmode  none
attr source  sentPk
attr title  "packets sent, vector(packetBytes)"
vector 346  Net802154MultiGateway.host[24].wrappedHost.trafficgen  PRR:vector  ETV
attr interpolationmode  none
attr source  count(sinkRcvdPk)/count(sentPk)
attr title  "PRR, vector"
vector 344  Net802154MultiGateway.host[24].wrappedHost.trafficgen  sinkRcvdPk:vector(packetBytes)  ETV
attr interpolationmode  none
attr source  sinkRcvdPk
attr title  "own packets received by sink, vector(packetBytes)"
vector 300  Net802154MultiGateway.host[21].wrappedHost.trafficgen  sentPk:vector(packetBytes)  ETV
attr interpolationmode  none
attr source  sentPk
attr title  "packets sent, vector(packetBytes)"
vector 304  Net802154MultiGateway.host[21].wrappedHost.trafficgen  PRR:vector  ETV
attr interpolationmode  none
attr source  count(sinkRcvdPk)/count(sentPk)
attr title  "PRR, vector"
vector 302  Net802154MultiGateway.host[21].wrappedHost.trafficgen  sinkRcvdPk:vector(packetBytes)  ETV
attr interpolationmode  none
attr source  sinkRcvdPk
attr title  "own packets received by sink, vector(packetBytes)"
vector 272  Net802154MultiGateway.host[19].wrappedHost.trafficgen  sentPk:vector(packetBytes)  ETV
attr interpolationmode  none
attr source  sentPk
attr title  "packets sent, vector(packetBytes)"
vector 276  Net802154MultiGateway.host[19].wrappedHost.trafficgen  PRR:vector  ETV
attr interpolationmode  none
attr source  count(sinkRcvdPk)/count(sentPk)
attr title  "PRR, vector"
vector 274  Net802154MultiGateway.host[19].wrappedHost.trafficgen  sinkRcvdPk:vector(packetBytes)  ETV
attr interpolationmode  none
attr source  sinkRcvdPk
attr title  "own packets received by sink, vector(packetBytes)"
vector 62  Net802154MultiGateway.host[4].wrappedHost.trafficgen  sentPk:vector(packetBytes)  ETV
attr interpolationmode  none
attr source  sentPk
attr title  "packets sent, vector(packetBytes)"
vector 66  Net802154MultiGateway.host[4].wrappedHost.trafficgen  PRR:vector  ETV
attr interpolationmode  none
attr source  count(sinkRcvdPk)/count(sentPk)
attr title  "PRR, vector"
vector 64  Net802154MultiGateway.host[4].wrappedHost.trafficgen  sinkRcvdPk:vector(packetBytes)  ETV
attr interpolationmode  none
attr source  sinkRcvdPk
attr title  "own packets received by sink, vector(packetBytes)"
vector 706  Net802154MultiGateway.host[50].wrappedHost.trafficgen  sentPk:vector(packetBytes)  ETV
attr interpolationmode  none
attr source  sentPk
attr title  "packets sent, vector(packetBytes)"
vector 710  Net802154MultiGateway.host[50].wrappedHost.trafficgen  PRR:vector  ETV
attr interpolationmode  none
attr source  count(sinkRcvdPk)/count(sentPk)
attr title  "PRR, vector"
vector 708  Net802154MultiGateway.host[50].wrappedHost.trafficgen  sinkRcvdPk:vector(packetBytes)  ETV
attr interpolationmode  none
attr source  sinkRcvdPk
attr title  "own packets received by sink, vector(packetBytes)"
vector 146  Net802154MultiGateway.host[10].wrappedHost.trafficgen  sentPk:vector(packetBytes)  ETV
attr interpolationmode  none
attr source  sentPk
attr title  "packets sent, vector(packetBytes)"
vector 150  Net802154MultiGateway.host[10].wrappedHost.trafficgen  PRR:vector  ETV
attr interpolationmode  none
attr source  count(sinkRcvdPk)/count(sentPk)
attr title  "PRR, vector"
vector 148  Net802154MultiGateway.host[10].wrappedHost.trafficgen  sinkRcvdPk:vector(packetBytes)  ETV
attr interpolationmode  none
attr source  sinkRcvdPk
attr title  "own packets received by sink, vector(packetBytes)"
vector 90  Net802154MultiGateway.host[6].wrappedHost.trafficgen  sentPk:vector(packetBytes)  ETV
attr interpolationmode  none
attr source  sentPk
attr title  "packets sent, vector(packetBytes)"
vector 94  Net802154MultiGateway.host[6].wrappedHost.trafficgen  PRR:vector  ETV
attr interpolationmode  none
attr source  count(sinkRcvdPk)/count(sentPk)
attr title  "PRR, vector"
vector 92  Net802154MultiGateway.host[6].wrappedHost.trafficgen  sinkRcvdPk:vector(packetBytes)  ETV
attr interpolationmode  none
attr source  sinkRcvdPk
attr title  "own packets received by sink, vector(packetBytes)"
vector 804  Net802154MultiGateway.host[57].wrappedHost.trafficgen  sentPk:vector(packetBytes)  ETV
attr interpolationmode  none
attr source  sentPk
attr title  "packets sent, vector(packetBytes)"
vector 808  Net802154MultiGateway.host[57].wrappedHost.trafficgen  PRR:vector  ETV
attr interpolationmode  none
attr source  count(sinkRcvdPk)/count(sentPk)
attr title  "PRR, vector"
vector 806  Net802154MultiGateway.host[57].wrappedHost.trafficgen  sinkRcvdPk:vector(packetBytes)  ETV
attr interpolationmode  none
attr source  sinkRcvdPk
attr title  "own packets received by sink, vector(packetBytes)"
vector 496  Net802154MultiGateway.host[35].wrappedHost.trafficgen  sentPk:vector(packetBytes)  ETV
attr interpolationmode  none
attr source  sentPk
attr title  "packets sent, vector(packetBytes)"
vector 500  Net802154MultiGateway.host[35].wrappedHost.trafficgen  PRR:vector  ETV
attr interpolationmode  none
attr source  count(sinkRcvdPk)/count(sentPk)
attr title  "PRR, vector"
vector 498  Net802154MultiGateway.host[35].wrappedHost.trafficgen  sinkRcvdPk:vector(packetBytes)  ETV
attr interpolationmode  none
attr source  sinkRcvdPk
attr title  "own packets received by sink, vector(packetBytes)"
vector 636  Net802154MultiGateway.host[45].wrappedHost.trafficgen  sentPk:vector(packetBytes)  ETV
attr interpolationmode  none
attr source  sentPk
attr title  "packets sent, vector(packetBytes)"
vector 640  Net802154MultiGateway.host[45].wrappedHost.trafficgen  PRR:vector  ETV
attr interpolationmode  none
attr source  count(sinkRcvdPk)/count(sentPk)
attr title  "PRR, vector"
vector 638  Net802154MultiGateway.host[45].wrappedHost.trafficgen  sinkRcvdPk:vector(packetBytes)  ETV
attr interpolationmode  none
attr source  sinkRcvdPk
attr title  "own packets received by sink, vector(packetBytes)"
vector 790  Net802154MultiGateway.host[56].wrappedHost.trafficgen  sentPk:vector(packetBytes)  ETV
attr interpolationmode  none
attr source  sentPk
attr title  "packets sent, vector(packetBytes)"
vector 794  Net802154MultiGateway.host[56].wrappedHost.trafficgen  PRR:vector  ETV
attr interpolationmode  none
attr source  count(sinkRcvdPk)/count(sentPk)
attr title  "PRR, vector"
vector 792  Net802154MultiGateway.host[56].wrappedHost.trafficgen  sinkRcvdPk:vector(packetBytes)  ETV
attr interpolationmode  none
attr source  sinkRcvdPk
attr title  "own packets received by sink, vector(packetBytes)"
vector 20  Net802154MultiGateway.host[1].wrappedHost.trafficgen  sentPk:vector(packetBytes)  ETV
attr interpolationmode  none
attr source  sentPk
attr title  "packets sent, vector(packetBytes)"
vector 24  Net802154MultiGateway.host[1].wrappedHost.trafficgen  PRR:vector  ETV
attr interpolationmode  none
attr source  count(sinkRcvdPk)/count(sentPk)
attr title  "PRR, vector"
vector 22  Net802154MultiGateway.host[1].wrappedHost.trafficgen  sinkRcvdPk:vector(packetBytes)  ETV
attr interpolationmode  none
attr source  sinkRcvdPk
attr title  "own packets received by sink, vector(packetBytes)"
vector 762  Net802154MultiGateway.host[54].wrappedHost.trafficgen  sentPk:vector(packetBytes)  ETV
attr interpolationmode  none
attr source  sentPk
attr title  "packets sent, vector(packetBytes)"
vector 766  Net802154MultiGateway.host[54].wrappedHost.trafficgen  PRR:vector  ETV
attr interpolationmode  none
attr source  count(sinkRcvdPk)/count(sentPk)
attr title  "PRR, vector"
vector 764  Net802154MultiGateway.host[54].wrappedHost.trafficgen  sinkRcvdPk:vector(packetBytes)  ETV
attr interpolationmode  none
attr source  sinkRcvdPk
attr title  "own packets received by sink, vector(packetBytes)"
vector 776  Net802154MultiGateway.host[55].wrappedHost.trafficgen  sentPk:vector(packetBytes)  ETV
attr interpolationmode  none
attr source  sentPk
attr title  "packets sent, vector(packetBytes)"
vector 780  Net802154MultiGateway.host[55].wrappedHost.trafficgen  PRR:vector  ETV
attr interpolationmode  none
attr source  count(sinkRcvdPk)/count(sentPk)
attr title  "PRR, vector"
vector 778  Net802154MultiGateway.host[55].wrappedHost.trafficgen  sinkRcvdPk:vector(packetBytes)  ETV
attr interpolationmode  none
attr source  sinkRcvdPk
attr title  "own packets received by sink, vector(packetBytes)"
vector 258  Net802154MultiGateway.host[18].wrappedHost.trafficgen  sentPk:vector(packetBytes)  ETV
attr interpolationmode  none
attr source  sentPk
attr title  "packets sent, vector(packetBytes)"
vector 262  Net802154MultiGateway.host[18].wrappedHost.trafficgen  PRR:vector  ETV
attr interpolationmode  none
attr source  count(sinkRcvdPk)/count(sentPk)
attr title  "PRR, vector"
vector 260  Net802154MultiGateway.host[18].wrappedHost.trafficgen  sinkRcvdPk:vector(packetBytes)  ETV
attr interpolationmode  none
attr source  sinkRcvdPk
attr title  "own packets received by sink, vector(packetBytes)"
vector 538  Net802154MultiGateway.host[38].wrappedHost.trafficgen  sentPk:vector(packetBytes)  ETV
attr interpolationmode  none
attr source  sentPk
attr title  "packets sent, vector(packetBytes)"
vector 542  Net802154MultiGateway.host[38].wrappedHost.trafficgen  PRR:vector  ETV
attr interpolationmode  none
attr source  count(sinkRcvdPk)/count(sentPk)
attr title  "PRR, vector"
vector 540  Net802154MultiGateway.host[38].wrappedHost.trafficgen  sinkRcvdPk:vector(packetBytes)  ETV
attr interpolationmode  none
attr source  sinkRcvdPk
attr title  "own packets received by sink, vector(packetBytes)"
vector 314  Net802154MultiGateway.host[22].wrappedHost.trafficgen  sentPk:vector(packetBytes)  ETV
attr interpolationmode  none
attr source  sentPk
attr title  "packets sent, vector(packetBytes)"
vector 318  Net802154MultiGateway.host[22].wrappedHost.trafficgen  PRR:vector  ETV
attr interpolationmode  none
attr source  count(sinkRcvdPk)/count(sentPk)
attr title  "PRR, vector"
vector 316  Net802154MultiGateway.host[22].wrappedHost.trafficgen  sinkRcvdPk:vector(packetBytes)  ETV
attr interpolationmode  none
attr source  sinkRcvdPk
attr title  "own packets received by sink, vector(packetBytes)"
vector 328  Net802154MultiGateway.host[23].wrappedHost.trafficgen  sentPk:vector(packetBytes)  ETV
attr interpolationmode  none
attr source  sentPk
attr title  "packets sent, vector(packetBytes)"
vector 332  Net802154MultiGateway.host[23].wrappedHost.trafficgen  PRR:vector  ETV
attr interpolationmode  none
attr source  count(sinkRcvdPk)/count(sentPk)
attr title  "PRR, vector"
vector 330  Net802154MultiGateway.host[23].wrappedHost.trafficgen  sinkRcvdPk:vector(packetBytes)  ETV
attr interpolationmode  none
attr source  sinkRcvdPk
attr title  "own packets received by sink, vector(packetBytes)"
vector 468  Net802154MultiGateway.host[33].wrappedHost.trafficgen  sentPk:vector(packetBytes)  ETV
attr interpolationmode  none
attr source  sentPk
attr title  "packets sent, vector(packetBytes)"
vector 472  Net802154MultiGateway.host[33].wrappedHost.trafficgen  PRR:vector  ETV
attr interpolationmode  none
attr source  count(sinkRcvdPk)/count(sentPk)
attr title  "PRR, vector"
vector 470  Net802154MultiGateway.host[33].wrappedHost.trafficgen  sinkRcvdPk:vector(packetBytes)  ETV
attr interpolationmode  none
attr source  sinkRcvdPk
attr title  "own packets received by sink, vector(packetBytes)"
vector 398  Net802154MultiGateway.host[28].wrappedHost.trafficgen  sentPk:vector(packetBytes)  ETV
attr interpolationmode  none
attr source  sentPk
attr title  "packets sent, vector(packetBytes)"
vector 402  Net802154MultiGateway.host[28].wrappedHost.trafficgen  PRR:vector  ETV
attr interpolationmode  none
attr source  count(sinkRcvdPk)/count(sentPk)
attr title  "PRR, vector"
vector 400  Net802154MultiGateway.host[28].wrappedHost.trafficgen  sinkRcvdPk:vector(packetBytes)  ETV
attr interpolationmode  none
attr source  sinkRcvdPk
attr title  "own packets received by sink, vector(packetBytes)"
vector 440  Net802154MultiGateway.host[31].wrappedHost.trafficgen  sentPk:vector(packetBytes)  ETV
attr interpolationmode  none
attr source  sentPk
attr title  "packets sent, vector(packetBytes)"
vector 444  Net802154MultiGateway.host[31].wrappedHost.trafficgen  PRR:vector  ETV
attr interpolationmode  none
attr source  count(sinkRcvdPk)/count(sentPk)
attr title  "PRR, vector"
vector 442  Net802154MultiGateway.host[31].wrappedHost.trafficgen  sinkRcvdPk:vector(packetBytes)  ETV
attr interpolationmode  none
attr source  sinkRcvdPk
attr title  "own packets received by sink, vector(packetBytes)"
vector 748  Net802154MultiGateway.host[53].wrappedHost.trafficgen  sentPk:vector(packetBytes)  ETV
attr interpolationmode  none
attr source  sentPk
attr title  "packets sent, vector(packetBytes)"
vector 752  Net802154MultiGateway.host[53].wrappedHost.trafficgen  PRR:vector  ETV
attr interpolationmode  none
attr source  count(sinkRcvdPk)/count(sentPk)
attr title  "PRR, vector"
vector 750  Net802154MultiGateway.host[53].wrappedHost.trafficgen  sinkRcvdPk:vector(packetBytes)  ETV
attr interpolationmode  none
attr source  sinkRcvdPk
attr title  "own packets received by sink, vector(packetBytes)"
vector 594  Net802154MultiGateway.host[42].wrappedHost.trafficgen  sentPk:vector(packetBytes)  ETV
attr interpolationmode  none
attr source  sentPk
attr title  "packets sent, vector(packetBytes)"
vector 598  Net802154MultiGateway.host[42].wrappedHost.trafficgen  PRR:vector  ETV
attr interpolationmode  none
attr source  count(sinkRcvdPk)/count(sentPk)
attr title  "PRR, vector"
vector 596  Net802154MultiGateway.host[42].wrappedHost.trafficgen  sinkRcvdPk:vector(packetBytes)  ETV
attr interpolationmode  none
attr source  sinkRcvdPk
attr title  "own packets received by sink, vector(packetBytes)"
vector 524  Net802154MultiGateway.host[37].wrappedHost.trafficgen  sentPk:vector(packetBytes)  ETV
attr interpolationmode  none
attr source  sentPk
attr title  "packets sent, vector(packetBytes)"
vector 528  Net802154MultiGateway.host[37].wrappedHost.trafficgen  PRR:vector  ETV
attr interpolationmode  none
attr source  count(sinkRcvdPk)/count(sentPk)
attr title  "PRR, vector"
vector 526  Net802154MultiGateway.host[37].wrappedHost.trafficgen  sinkRcvdPk:vector(packetBytes)  ETV
attr interpolationmode  none
attr source  sinkRcvdPk
attr title  "own packets received by sink, vector(packetBytes)"
vector 48  Net802154MultiGateway.host[3].wrappedHost.trafficgen  sentPk:vector(packetBytes)  ETV
attr interpolationmode  none
attr source  sentPk
attr title  "packets sent, vector(packetBytes)"
vector 52  Net802154MultiGateway.host[3].wrappedHost.trafficgen  PRR:vector  ETV
attr interpolationmode  none
attr source  count(sinkRcvdPk)/count(sentPk)
attr title  "PRR, vector"
vector 50  Net802154MultiGateway.host[3].wrappedHost.trafficgen  sinkRcvdPk:vector(packetBytes)  ETV
attr interpolationmode  none
attr source  sinkRcvdPk
attr title  "own packets received by sink, vector(packetBytes)"
vector 230  Net802154MultiGateway.host[16].wrappedHost.trafficgen  sentPk:vector(packetBytes)  ETV
attr interpolationmode  none
attr source  sentPk
attr title  "packets sent, vector(packetBytes)"
vector 234  Net802154MultiGateway.host[16].wrappedHost.trafficgen  PRR:vector  ETV
attr interpolationmode  none
attr source  count(sinkRcvdPk)/count(sentPk)
attr title  "PRR, vector"
vector 232  Net802154MultiGateway.host[16].wrappedHost.trafficgen  sinkRcvdPk:vector(packetBytes)  ETV
attr interpolationmode  none
attr source  sinkRcvdPk
attr title  "own packets received by sink, vector(packetBytes)"
vector 188  Net802154MultiGateway.host[13].wrappedHost.trafficgen  sentPk:vector(packetBytes)  ETV
attr interpolationmode  none
attr source  sentPk
attr title  "packets sent, vector(packetBytes)"
vector 192  Net802154MultiGateway.host[13].wrappedHost.trafficgen  PRR:vector  ETV
attr interpolationmode  none
attr source  count(sinkRcvdPk)/count(sentPk)
attr title  "PRR, vector"
vector 412  Net802154MultiGateway.host[29].wrappedHost.trafficgen  sentPk:vector(packetBytes)  ETV
attr interpolationmode  none
attr source  sentPk
attr title  "packets sent, vector(packetBytes)"
vector 416  Net802154MultiGateway.host[29].wrappedHost.trafficgen  PRR:vector  ETV
attr interpolationmode  none
attr source  count(sinkRcvdPk)/count(sentPk)
attr title  "PRR, vector"
vector 190  Net802154MultiGateway.host[13].wrappedHost.trafficgen  sinkRcvdPk:vector(packetBytes)  ETV
attr interpolationmode  none
attr source  sinkRcvdPk
attr title  "own packets received by sink, vector(packetBytes)"
vector 414  Net802154MultiGateway.host[29].wrappedHost.trafficgen  sinkRcvdPk:vector(packetBytes)  ETV
attr interpolationmode  none
attr source  sinkRcvdPk
attr title  "own packets received by sink, vector(packetBytes)"
vector 454  Net802154MultiGateway.host[32].wrappedHost.trafficgen  sentPk:vector(packetBytes)  ETV
attr interpolationmode  none
attr source  sentPk
attr title  "packets sent, vector(packetBytes)"
vector 458  Net802154MultiGateway.host[32].wrappedHost.trafficgen  PRR:vector  ETV
attr interpolationmode  none
attr source  count(sinkRcvdPk)/count(sentPk)
attr title  "PRR, vector"
vector 456  Net802154MultiGateway.host[32].wrappedHost.trafficgen  sinkRcvdPk:vector(packetBytes)  ETV
attr interpolationmode  none
attr source  sinkRcvdPk
attr title  "own packets received by sink, vector(packetBytes)"
vector 216  Net802154MultiGateway.host[15].wrappedHost.trafficgen  sentPk:vector(packetBytes)  ETV
attr interpolationmode  none
attr source  sentPk
attr title  "packets sent, vector(packetBytes)"
vector 220  Net802154MultiGateway.host[15].wrappedHost.trafficgen  PRR:vector  ETV
attr interpolationmode  none
attr source  count(sinkRcvdPk)/count(sentPk)
attr title  "PRR, vector"
vector 218  Net802154MultiGateway.host[15].wrappedHost.trafficgen  sinkRcvdPk:vector(packetBytes)  ETV
attr interpolationmode  none
attr source  sinkRcvdPk
attr title  "own packets received by sink, vector(packetBytes)"
vector 384  Net802154MultiGateway.host[27].wrappedHost.trafficgen  sentPk:vector(packetBytes)  ETV
attr interpolationmode  none
attr source  sentPk
attr title  "packets sent, vector(packetBytes)"
vector 388  Net802154MultiGateway.host[27].wrappedHost.trafficgen  PRR:vector  ETV
attr interpolationmode  none
attr source  count(sinkRcvdPk)/count(sentPk)
attr title  "PRR, vector"
vector 386  Net802154MultiGateway.host[27].wrappedHost.trafficgen  sinkRcvdPk:vector(packetBytes)  ETV
attr interpolationmode  none
attr source  sinkRcvdPk
attr title  "own packets received by sink, vector(packetBytes)"
vector 34  Net802154MultiGateway.host[2].wrappedHost.trafficgen  sentPk:vector(packetBytes)  ETV
attr interpolationmode  none
attr source  sentPk
attr title  "packets sent, vector(packetBytes)"
vector 38  Net802154MultiGateway.host[2].wrappedHost.trafficgen  PRR:vector  ETV
attr interpolationmode  none
attr source  count(sinkRcvdPk)/count(sentPk)
attr title  "PRR, vector"
vector 36  Net802154MultiGateway.host[2].wrappedHost.trafficgen  sinkRcvdPk:vector(packetBytes)  ETV
attr interpolationmode  none
attr source  sinkRcvdPk
attr title  "own packets received by sink, vector(packetBytes)"
vector 650  Net802154MultiGateway.host[46].wrappedHost.trafficgen  sentPk:vector(packetBytes)  ETV
attr interpolationmode  none
attr source  sentPk
attr title  "packets sent, vector(packetBytes)"
vector 654  Net802154MultiGateway.host[46].wrappedHost.trafficgen  PRR:vector  ETV
attr interpolationmode  none
attr source  count(sinkRcvdPk)/count(sentPk)
attr title  "PRR, vector"
vector 652  Net802154MultiGateway.host[46].wrappedHost.trafficgen  sinkRcvdPk:vector(packetBytes)  ETV
attr interpolationmode  none
attr source  sinkRcvdPk
attr title  "own packets received by sink, vector(packetBytes)"
vector 510  Net802154MultiGateway.host[36].wrappedHost.trafficgen  sentPk:vector(packetBytes)  ETV
attr interpolationmode  none
attr source  sentPk
attr title  "packets sent, vector(packetBytes)"
vector 514  Net802154MultiGateway.host[36].wrappedHost.trafficgen  PRR:vector  ETV
attr interpolationmode  none
attr source  count(sinkRcvdPk)/count(sentPk)
attr title  "PRR, vector"
vector 512  Net802154MultiGateway.host[36].wrappedHost.trafficgen  sinkRcvdPk:vector(packetBytes)  ETV
attr interpolationmode  none
attr source  sinkRcvdPk
attr title  "own packets received by sink, vector(packetBytes)"
vector 482  Net802154MultiGateway.host[34].wrappedHost.trafficgen  sentPk:vector(packetBytes)  ETV
attr interpolationmode  none
attr source  sentPk
attr title  "packets sent, vector(packetBytes)"
vector 486  Net802154MultiGateway.host[34].wrappedHost.trafficgen  PRR:vector  ETV
attr interpolationmode  none
attr source  count(sinkRcvdPk)/count(sentPk)
attr title  "PRR, vector"
vector 608  Net802154MultiGateway.host[43].wrappedHost.trafficgen  sentPk:vector(packetBytes)  ETV
attr interpolationmode  none
attr source  sentPk
attr title  "packets sent, vector(packetBytes)"
vector 612  Net802154MultiGateway.host[43].wrappedHost.trafficgen  PRR:vector  ETV
attr interpolationmode  none
attr source  count(sinkRcvdPk)/count(sentPk)
attr title  "PRR, vector"
vector 484  Net802154MultiGateway.host[34].wrappedHost.trafficgen  sinkRcvdPk:vector(packetBytes)  ETV
attr interpolationmode  none
attr source  sinkRcvdPk
attr title  "own packets received by sink, vector(packetBytes)"
vector 610  Net802154MultiGateway.host[43].wrappedHost.trafficgen  sinkRcvdPk:vector(packetBytes)  ETV
attr interpolationmode  none
attr source  sinkRcvdPk
attr title  "own packets received by sink, vector(packetBytes)"
vector 132  Net802154MultiGateway.host[9].wrappedHost.trafficgen  sentPk:vector(packetBytes)  ETV
attr interpolationmode  none
attr source  sentPk
attr title  "packets sent, vector(packetBytes)"
vector 136  Net802154MultiGateway.host[9].wrappedHost.trafficgen  PRR:vector  ETV
attr interpolationmode  none
attr source  count(sinkRcvdPk)/count(sentPk)
attr title  "PRR, vector"
vector 134  Net802154MultiGateway.host[9].wrappedHost.trafficgen  sinkRcvdPk:vector(packetBytes)  ETV
attr interpolationmode  none
attr source  sinkRcvdPk
attr title  "own packets received by sink, vector(packetBytes)"
vector 580  Net802154MultiGateway.host[41].wrappedHost.trafficgen  sentPk:vector(packetBytes)  ETV
attr interpolationmode  none
attr source  sentPk
attr title  "packets sent, vector(packetBytes)"
vector 584  Net802154MultiGateway.host[41].wrappedHost.trafficgen  PRR:vector  ETV
attr interpolationmode  none
attr source  count(sinkRcvdPk)/count(sentPk)
attr title  "PRR, vector"
vector 582  Net802154MultiGateway.host[41].wrappedHost.trafficgen  sinkRcvdPk:vector(packetBytes)  ETV
attr interpolationmode  none
attr source  sinkRcvdPk
attr title  "own packets received by sink, vector(packetBytes)"
vector 356  Net802154MultiGateway.host[25].wrappedHost.trafficgen  sentPk:vector(packetBytes)  ETV
attr interpolationmode  none
attr source  sentPk
attr title  "packets sent, vector(packetBytes)"
vector 360  Net802154MultiGateway.host[25].wrappedHost.trafficgen  PRR:vector  ETV
attr interpolationmode  none
attr source  count(sinkRcvdPk)/count(sentPk)
attr title  "PRR, vector"
vector 358  Net802154MultiGateway.host[25].wrappedHost.trafficgen  sinkRcvdPk:vector(packetBytes)  ETV
attr interpolationmode  none
attr source  sinkRcvdPk
attr title  "own packets received by sink, vector(packetBytes)"
vector 860  Net802154MultiGateway.host[61].wrappedHost.trafficgen  sentPk:vector(packetBytes)  ETV
attr interpolationmode  none
attr source  sentPk
attr title  "packets sent, vector(packetBytes)"
vector 864  Net802154MultiGateway.host[61].wrappedHost.trafficgen  PRR:vector  ETV
attr interpolationmode  none
attr source  count(sinkRcvdPk)/count(sentPk)
attr title  "PRR, vector"
vector 862  Net802154MultiGateway.host[61].wrappedHost.trafficgen  sinkRcvdPk:vector(packetBytes)  ETV
attr interpolationmode  none
attr source  sinkRcvdPk
attr title  "own packets received by sink, vector(packetBytes)"
vector 202  Net802154MultiGateway.host[14].wrappedHost.trafficgen  sentPk:vector(packetBytes)  ETV
attr interpolationmode  none
attr source  sentPk
attr title  "packets sent, vector(packetBytes)"
vector 206  Net802154MultiGateway.host[14].wrappedHost.trafficgen  PRR:vector  ETV
attr interpolationmode  none
attr source  count(sinkRcvdPk)/count(sentPk)
attr title  "PRR, vector"
vector 204  Net802154MultiGateway.host[14].wrappedHost.trafficgen  sinkRcvdPk:vector(packetBytes)  ETV
attr interpolationmode  none
attr source  sinkRcvdPk
attr title  "own packets received by sink, vector(packetBytes)"
vector 426  Net802154MultiGateway.host[30].wrappedHost.trafficgen  sentPk:vector(packetBytes)  ETV
attr interpolationmode  none
attr source  sentPk
attr title  "packets sent, vector(packetBytes)"
vector 430  Net802154MultiGateway.host[30].wrappedHost.trafficgen  PRR:vector  ETV
attr interpolationmode  none
attr source  count(sinkRcvdPk)/count(sentPk)
attr title  "PRR, vector"
vector 428  Net802154MultiGateway.host[30].wrappedHost.trafficgen  sinkRcvdPk:vector(packetBytes)  ETV
attr interpolationmode  none
attr source  sinkRcvdPk
attr title  "own packets received by sink, vector(packetBytes)"
vector 566  Net802154MultiGateway.host[40].wrappedHost.trafficgen  sentPk:vector(packetBytes)  ETV
attr interpolationmode  none
attr source  sentPk
attr title  "packets sent, vector(packetBytes)"
vector 570  Net802154MultiGateway.host[40].wrappedHost.trafficgen  PRR:vector  ETV
attr interpolationmode  none
attr source  count(sinkRcvdPk)/count(sentPk)
attr title  "PRR, vector"
vector 568  Net802154MultiGateway.host[40].wrappedHost.trafficgen  sinkRcvdPk:vector(packetBytes)  ETV
attr interpolationmode  none
attr source  sinkRcvdPk
attr title  "own packets received by sink, vector(packetBytes)"
vector 692  Net802154MultiGateway.host[49].wrappedHost.trafficgen  sentPk:vector(packetBytes)  ETV
attr interpolationmode  none
attr source  sentPk
attr title  "packets sent, vector(packetBytes)"
vector 696  Net802154MultiGateway.host[49].wrappedHost.trafficgen  PRR:vector  ETV
attr interpolationmode  none
attr source  count(sinkRcvdPk)/count(sentPk)
attr title  "PRR, vector"
vector 694  Net802154MultiGateway.host[49].wrappedHost.trafficgen  sinkRcvdPk:vector(packetBytes)  ETV
attr interpolationmode  none
attr source  sinkRcvdPk
attr title  "own packets received by sink, vector(packetBytes)"
vector 720  Net802154MultiGateway.host[51].wrappedHost.trafficgen  sentPk:vector(packetBytes)  ETV
attr interpolationmode  none
attr source  sentPk
attr title  "packets sent, vector(packetBytes)"
vector 724  Net802154MultiGateway.host[51].wrappedHost.trafficgen  PRR:vector  ETV
attr interpolationmode  none
attr source  count(sinkRcvdPk)/count(sentPk)
attr title  "PRR, vector"
vector 722  Net802154MultiGateway.host[51].wrappedHost.trafficgen  sinkRcvdPk:vector(packetBytes)  ETV
attr interpolationmode  none
attr source  sinkRcvdPk
attr title  "own packets received by sink, vector(packetBytes)"
vector 286  Net802154MultiGateway.host[20].wrappedHost.trafficgen  sentPk:vector(packetBytes)  ETV
attr interpolationmode  none
attr source  sentPk
attr title  "packets sent, vector(packetBytes)"
vector 290  Net802154MultiGateway.host[20].wrappedHost.trafficgen  PRR:vector  ETV
attr interpolationmode  none
attr source  count(sinkRcvdPk)/count(sentPk)
attr title  "PRR, vector"
vector 288  Net802154MultiGateway.host[20].wrappedHost.trafficgen  sinkRcvdPk:vector(packetBytes)  ETV
attr interpolationmode  none
attr source  sinkRcvdPk
attr title  "own packets received by sink, vector(packetBytes)"
vector 104  Net802154MultiGateway.host[7].wrappedHost.trafficgen  sentPk:vector(packetBytes)  ETV
attr interpolationmode  none
attr source  sentPk
attr title  "packets sent, vector(packetBytes)"
vector 108  Net802154MultiGateway.host[7].wrappedHost.trafficgen  PRR:vector  ETV
attr interpolationmode  none
attr source  count(sinkRcvdPk)/count(sentPk)
attr title  "PRR, vector"
vector 106  Net802154MultiGateway.host[7].wrappedHost.trafficgen  sinkRcvdPk:vector(packetBytes)  ETV
attr interpolationmode  none
attr source  sinkRcvdPk
attr title  "own packets received by sink, vector(packetBytes)"
vector 818  Net802154MultiGateway.host[58].wrappedHost.trafficgen  sentPk:vector(packetBytes)  ETV
attr interpolationmode  none
attr source  sentPk
attr title  "packets sent, vector(packetBytes)"
vector 822  Net802154MultiGateway.host[58].wrappedHost.trafficgen  PRR:vector  ETV
attr interpolationmode  none
attr source  count(sinkRcvdPk)/count(sentPk)
attr title  "PRR, vector"
vector 820  Net802154MultiGateway.host[58].wrappedHost.trafficgen  sinkRcvdPk:vector(packetBytes)  ETV
attr interpolationmode  none
attr source  sinkRcvdPk
attr title  "own packets received by sink, vector(packetBytes)"
5	802215	161.06482018854	76
5	802274	161.071787899631	76
5	802569	161.114513769411	76
5	802876	161.143553450626	76
5	803112	161.194042418335	76
5	803297	161.216008668109	76
5	803425	161.244298600889	76
5	803659	161.293397970531	76
5	803939	161.425954135827	76
5	804256	161.464509695664	76
5	804385	161.47592909989	76
5	804688	161.508579574281	76
5	804758	161.513124241409	76
5	804982	161.53225708472	76
5	805046	161.543391641201	76
5	805227	161.640006334345	76
5	805413	161.663787432701	76
5	805540	161.680859951494	76
5	805667	161.730166550177	76
5	805851	161.786089431845	76
5	805920	161.906678483913	76
5	806203	161.925509765097	76
5	806438	161.936953818638	76
5	806496	161.94184332417	76
5	806828	161.98492374923	76
5	806951	161.99517699366	76
5	807016	162.066715909088	76
5	807247	162.098013630715	76
5	807472	162.11407671017	76
5	807689	162.166720949264	76
5	807929	162.187972432689	76
5	808194	162.237806797179	76
5	808321	162.28528224639	76
5	808562	162.347051399107	76
5	808737	162.501840854701	76
5	808801	162.536001247952	76
5	808953	162.588729479538	76
5	809195	162.620139982815	76
5	809476	162.643761264004	76
5	809603	162.658931979926	76
5	809905	162.698789864571	76
5	810077	162.711875183478	76
5	810263	162.752473329656	76
5	810447	162.807643086634	76
5	810677	162.853317421079	76
5	811085	162.910271509273	76
5	811439	162.926408917573	76
5	811513	162.934289501811	76
5	811799	162.970613868933	76
5	812026	163.044764860335	76
5	812324	163.097903340438	76
5	812531	163.107957123496	76
5	812672	163.114619336555	76
5	812782	163.124214515956	76
5	813118	163.180972365808	76
5	813245	163.191703867888	76
5	813484	163.216633110527	76
5	813717	163.251744254151	76
5	813952	163.274920924035	76
5	814132	163.290563018685	76
5	814373	163.428151810656	76
5	814643	163.456559621622	76
5	814707	163.469995308724	76
5	814938	163.494804945488	76
5	815222	163.534957057632	76
5	815362	163.620928110528	76
5	815487	163.643529275291	76
5	815617	163.660143625758	76
5	815799	163.674604764132	76
5	815942	163.717764530454	76
5	816136	163.736164398357	76
5	816350	163.75869711891	76
5	816478	163.771036840164	76
5	816820	163.830269272055	76
5	816893	163.837769523645	76
5	817182	163.862058224595	76
5	817498	163.881397577318	76
5	817714	163.889490027956	76
5	817884	163.899041809332	76
5	817957	163.908255202456	76
5	818241	163.975641993727	76
5	818474	164.009845371096	76
5	818724	164.177280158031	76
5	818939	164.246967201684	76
5	819302	164.280982665933	76
5	819377	164.290414680418	76
5	819633	164.341539729296	76
5	819936	164.466156795697	76
5	820064	164.50412486086	76
5	820350	164.554991547505	76
5	820502	164.569593915767	76
5	820796	164.601348589281	76
5	820966	164.614660368028	76
5	821268	164.640472442834	76
5	821531	164.652248554596	76
5	821655	164.66338312058	76
5	821960	164.688747092264	76
5	822123	164.700394911345	76
5	822257	164.70866660975	76
5	822481	164.730686132358	76
5	822667	164.777457631232	76
5	822903	164.855607539605	76
5	823114	164.882420954799	76
5	823515	165.004825732295	76
5	823698	165.06900023095	76
5	823882	165.092114757736	76
5	824171	165.177033631374	76
5	824229	165.182620474207	76
5	824525	165.231342049767	76
5	824738	165.242938379086	76
5	824914	165.254805243874	76
5	825101	165.333539191799	76
5	825348	165.368374295282	76
5	825472	165.385840837465	76
5	825599	165.40067274088	76
5	825785	165.543158740173	76
5	826074	165.568754634803	76
5	826244	165.581768601041	76
5	826309	165.594147381197	76
5	826543	165.707393248487	76
5	826789	165.769680331818	76
5	826851	165.774426230311	76
5	826910	165.779676166123	76
5	827269	165.867460032992	76
5	827481	165.874653550325	76
5	827539	165.879192722804	76
5	827668	165.921658007349	76
5	827845	165.939007955249	76
5	827985	165.952592272701	76
5	828220	165.974168368216	76
5	828437	165.994359657865	76
5	828561	166.005231378848	76
5	828797	166.033756131278	76
5	828983	166.046642790742	76
5	829155	166.061083946085	76
5	829355	166.090260833991	76
5	829675	166.113827488747	76
5	829855	166.125488091774	76
5	830075	166.143778028331	76
5	830200	166.159125185546	76
5	830327	166.243267188772	76
5	830454	166.261790034781	76
5	830651	166.278499968792	76
5	830838	166.290524706851	76
5	831037	166.306970657762	76
5	831165	166.330722839692	76
5	831444	166.356010915688	76
5	831588	166.371035020307	76
5	831889	166.396958117593	76
5	832030	166.409525802514	76
5	832219	166.556998880969	76
5	832514	166.654034144398	76
5	832685	166.668652808874	76
5	832927	166.717363169705	76
5	833054	166.736893238052	76
5	833357	166.755564734291	76
5	833642	166.770795198392	76
5	833702	166.77629986552	76
5	833841	166.787213645423	76
5	834058	166.806474001152	76
5	834298	166.843856706489	76
5	834529	166.980084849337	76
5	834658	167.071984058833	76
5	834894	167.102230370217	76
5	835026	167.180267903229	76
5	835150	167.191968813181	76
5	835336	167.214899430001	76
5	835463	167.229695690336	76
5	835649	167.279119765398	76
5	835889	167.312564134865	76
5	835973	167.32176439868	76
5	836209	167.431211300659	76
5	836451	167.486210011005	76
5	836850	167.577417490813	76
5	836925	167.585656493785	76
5	837108	167.60661378649	76
5	837293	167.646296756179	76
5	837421	167.69476155782	76
5	837606	167.717061611628	76
5	837893	167.770012747698	76
5	838075	167.785300903444	76
5	838261	167.845443386558	76
5	838503	167.908637596177	76
5	838567	167.920570678764	76
5	838793	167.966997651011	76
5	838987	168.003241145681	76
5	839159	168.010013816563	76
5	839234	168.01816514034	76
5	839362	168.03545353576	76
5	839545	168.059677888957	76
5	839609	168.127098565442	76
5	839836	168.165077316192	76
5	839909	168.170588799085	76
5	840275	168.227135008874	76
5	840357	168.234631951274	76
5	840416	168.240776618402	76
5	840652	168.275856175753	76
5	840903	168.473239285225	76
5	841076	168.487599516853	76
5	841308	168.558035552962	76
5	841498	168.614366355525	76
5	841638	168.712459023719	76
5	841806	168.726190788753	76
5	841934	168.852518830427	76
5	841996	168.86059030218	76
5	842060	168.883639994836	76
5	842350	168.903470759226	76
5	842543	168.912738047927	76
5	842685	168.928091325061	76
5	842837	168.94273086625	76
5	842978	168.954475972305	76
5	843105	168.982325979686	76
5	843232	169.016585546685	76
5	843361	169.026955211362	76
5	843544	169.041398022846	76
5	843609	169.052852561832	76
5	843807	169.114872089067	76
5	843916	169.123447707169	76
5	844100	169.142110976563	76
5	844227	169.164525329462	76
5	844468	169.182991481421	76
5	844559	169.191966892482	76
5	844864	169.237905788565	76
5	845013	169.249028831447	76
5	845073	169.259252449599	76
5	845258	169.276330529233	76
5	845455	169.31048863091	76
5	845753	169.327394930145	76
5	845990	169.338306724713	76
5	846064	169.342808469343	76
5	846419	169.363034014359	76
5	846530	169.371246608189	76
5	846590	169.376533593821	76
5	846717	169.387571209624	76
5	847074	169.432002226341	76
5	847182	169.439522436709	76
5	847310	169.485220087188	76
5	847500	169.533638297034	76
5	847674	169.546803355503	76
5	847816	169.662016569739	76
5	848020	169.681898420867	76
5	848206	169.751920821588	76
5	848333	169.838146879396	76
5	848460	169.870234074143	76
5	848587	169.903601609174	76
5	848785	169.921720015482	76
5	848986	169.940021889015	76
5	849122	169.980961813493	76
5	849246	169.998020045647	76
5	849571	170.04066534864	76
5	849846	170.058296128779	76
5	849905	170.06434924979	76
5	850263	170.180101206613	76
5	850447	170.207465074322	76
5	850691	170.255253808841	76
5	850865	170.263017765457	76
5	851021	170.276133431884	76
5	851096	170.284921425515	76
5	851270	170.389807523992	76
5	851549	170.425397303531	76
5	851825	170.465871845073	76
5	852026	170.486387559324	76
5	852212	170.543981483463	76
5	852445	170.595884812336	76
5	852678	170.622798027357	76
5	852991	170.779890090947	76
5	853118	170.816456043842	76
5	853297	170.896387903146	76
5	853483	170.967854239437	76
5	853772	171.0067366481	76
5	853897	171.017649410587	76
5	854278	171.051984757424	76
5	854455	171.060767075774	76
5	854670	171.073619519946	76
5	854795	171.088698685121	76
5	855024	171.165254609583	76
5	855206	171.192179915224	76
5	855421	171.230662843256	76
5	855480	171.235604970284	76
5	855669	171.274772427503	76
5	856033	171.303091024032	76
5	856237	171.322877639903	76
5	856366	171.376105125433	76
5	856593	171.401325185474	76
5	856668	171.406465929082	76
5	856931	171.444153360969	76
5	857117	171.532609554252	76
5	857454	171.629796182998	76
5	857645	171.653769425757	76
5	857914	171.683019194874	76
5	858041	171.786707084016	76
5	858168	171.799616036401	76
5	858416	171.967109420179	76
5	858543	172.102722006925	76
5	858781	172.156839735695	76
5	859040	172.230905745772	76
5	859105	172.284088897068	76
5	859380	172.312777782565	76
5	859585	172.407825649278	76
5	859714	172.457325292926	76
5	860072	172.48480486254	76
5	860212	172.497800845521	76
5	860522	172.564553142939	76
5	860595	172.573983293208	76
5	860854	172.616105018329	76
5	861368	172.646118840933	76
5	861521	172.652502898829	76
5	861584	172.6575347475	76
5	861709	172.669703653177	76
5	862090	172.693888796913	76
5	862326	172.702821973961	76
5	862444	172.712050409664	76
5	862645	172.728366785784	76
5	862916	172.908581065862	76
5	863159	172.973336935004	76
5	863218	172.979353011099	76
5	863570	173.007397187029	76
5	863722	173.022387911749	76
5	863900	173.083861980622	76
5	864109	173.103736610182	76
5	864350	173.13183358147	76
5	864583	173.169233742868	76
5	864769	173.210353975635	76
5	864940	173.225016506139	76
5	865226	173.273893466456	76
5	865533	173.304356589066	76
5	865610	173.312565651551	76
5	865929	173.407151052926	76
5	866263	173.426146666633	76
5	866382	173.435138914165	76
5	866616	173.513548788165	76
5	866790	173.552664674212	76
5	867029	173.630141432349	76
5	867259	173.676334167325	76
5	867493	173.725964763628	76
5	867698	173.742942356413	76
5	867935	173.813941028887	76
5	868300	173.937003380372	76
5	868500	173.983260863783	76
5	868575	173.98991907087	76
5	868762	174.014422012435	76
5	869080	174.118553709108	76
5	869204	174.130906376236	76
5	869367	174.333792554261	76
5	869429	174.355715211201	76
5	869570	174.376991384743	76
5	869653	174.382496051871	76
5	869847	174.401647174889	76
5	870078	174.450919260042	76
5	870272	174.470899837334	76
5	870559	174.492273544046	76
5	870676	174.501316866124	76
5	870913	174.533664077164	76
5	871040	174.549605439162	76
5	871310	174.604337870998	76
5	871375	174.650191959929	76
5	871566	174.697542004856	76
5	871739	174.713579162639	76
5	871801	174.721003260886	76
5	872031	174.745269851504	76
5	872261	174.778045569442	76
5	872538	174.898195069706	76
5	872710	174.908140843557	76
5	872927	174.934840185783	76
5	873166	174.974028298444	76
5	873342	175.038729706513	76
5	873528	175.055441411099	76
5	873714	175.098362932538	76
5	873841	175.138550946756	76
5	874156	175.17015205439	76
5	874294	175.185199773149	76
5	874591	175.212583100502	76
5	874712	175.221823773965	76
5	874931	175.236512425708	76
5	875116	175.286626758797	76
5	875182	175.304006002285	76
5	875244	175.329637751567	76
5	875553	175.365860338996	76
5	875730	175.372287645787	76
5	875944	175.383297478033	76
5	876117	175.391985666333	76
5	876292	175.405134484409	76
5	876349	175.409679151537	76
5	876590	175.531533295405	76
5	876775	175.546676190208	76
5	876976	175.618039820878	76
5	877084	175.625385830937	76
5	877321	175.652394201915	76
5	877618	175.673280998909	76
5	877759	175.687616854179	76
5	877943	175.727523862244	76
5	878181	175.877816358223	76
5	878308	175.890816768115	76
5	878435	175.919764335114	76
5	878653	175.94136878455	76
5	878728	175.947368992001	76
5	878913	176.04021100977	76
5	879040	176.071887707571	76
5	879224	176.152717321948	76
5	879475	176.188639744879	76
5	879650	176.202527184286	76
5	879958	176.23078518998	76
5	880033	176.238283445154	76
5	880160	176.347888907633	76
5	880396	176.412741126524	76
5	880585	176.526418150294	76
5	880987	176.547861982474	76
5	881051	176.561206546959	76
5	881285	176.591999499833	76
5	881518	176.614669993583	76
5	881757	176.645963766437	76
5	882071	176.713003122268	76
5	882169	176.719082433692	76
5	882480	176.756716232598	76
5	882721	176.776657235429	76
5	882832	176.785022743283	76
5	883249	176.864380836829	76
5	883308	176.869284772566	76
5	883538	176.935490274619	76
5	883774	177.000086919882	76
5	884007	177.060086027829	76
5	884249	177.088535873585	76
5	884376	177.142597547979	76
5	884609	177.18526638561	76
5	884736	177.22551735131	76
5	884922	177.251653594941	76
5	885108	177.300110957752	76
5	885357	177.331090709389	76
5	885497	177.346247511758	76
5	885731	177.368272817567	76
5	885976	177.412806328999	76
5	886277	177.473320716757	76
5	886548	177.490925641561	76
5	886638	177.496253152341	76
5	886769	177.512421550275	76
5	886998	177.529275167947	76
5	887290	177.559743414532	76
5	887490	177.580008069013	76
5	887617	177.641821898543	76
5	887915	177.739054332331	76
5	888120	177.76119173946	76
5	888390	177.783475594822	76
5	888528	177.799565907414	76
5	888655	177.82327428301	76
5	888719	177.840543551479	76
5	889084	177.925348690627	76
5	889158	177.934134202192	76
5	889401	177.98150552069	76
5	889528	177.994320424256	76
5	889714	178.018410135832	76
5	889950	178.081861303806	76
5	890189	178.117552572846	76
5	890375	178.176490511811	76
5	890502	178.194620805506	76
5	890754	178.24692745255	76
5	890922	178.261162881834	76
5	891115	178.277793808953	76
5	891255	178.293396217426	76
5	891382	178.33138609439	76
5	891847	178.460462107281	76
5	891991	178.468367816496	76
5	892130	178.483760544016	76
5	892372	178.521183839901	76
5	892608	178.64298154222	76
5	892860	178.724834493742	76
5	893060	178.742384742618	76
5	893134	178.782578429762	76
5	893374	178.801614734181	76
5	893907	178.822486682345	76
5	894000	178.826979281364	76
5	894265	178.84059708383	76
5	894327	178.846850930321	76
5	894590	178.890943552489	76
5	894749	178.900177288935	76
5	895291	178.920541918079	76
5	895467	178.929929627905	76
5	895556	178.938807290915	76
5	895786	178.964108378309	76
5	896020	178.990678787547	76
5	896250	179.022168455148	76
5	896627	179.049550895158	76
5	896684	179.054097727318	76
5	897226	179.08545337366	76
5	897464	179.092628752243	76
5	897672	179.100089002014	76
5	897790	179.105833685077	76
5	897899	179.11114105136	76
5	898138	179.152018017068	76
5	898323	179.233712461835	76
5	898623	179.272880378962	76
5	898796	179.28606247347	76
5	899031	179.337319530237	76
5	899215	179.369767835117	76
5	899456	179.435771219243	76
5	899584	179.501971073045	76
5	899711	179.563522468505	76
5	899945	179.59393264391	76
5	900074	179.622797508791	76
5	900259	179.775411416381	76
5	900322	179.785032694033	76
5	900721	179.807136369053	76
5	900829	179.812479012527	76
5	901030	179.834844476831	76
5	901262	179.91555114952	76
5	901744	180.014260325648	76
5	901821	180.021135146493	76
5	902106	180.047759511459	76
5	902395	180.105499295692	76
5	902483	180.111121721196	76
5	902787	180.130280857139	76
5	902982	180.148691831036	76
5	903188	180.242435487201	76
5	903380	180.270914228653	76
5	903513	180.298174449241	76
5	903709	180.317590299023	76
5	903925	180.346197395321	76
5	904120	180.361720222803	76
5	904358	180.434308011546	76
5	904450	180.583962249172	76
5	904586	180.664354089254	76
5	904871	180.684349618565	76
5	904931	180.69271861279	76
5	905573	180.753204850275	76
5	905652	180.760600129291	76
5	905784	180.770208489379	76
5	905925	180.783551066154	76
5	906256	180.924428424789	76
5	906369	180.969835954334	76
5	906526	180.990263943994	76
5	906885	181.073160570766	76
5	907126	181.149069180464	76
5	907277	181.160797261182	76
5	907652	181.177576240525	76
5	907797	181.191375613612	76
5	907856	181.197292481113	76
5	908039	181.281610828732	76
5	908341	181.349597818459	76
5	908512	181.362363609043	76
5	908699	181.420676169884	76
5	908930	181.477304800674	76
5	909201	181.523877144696	76
5	909387	181.559833841573	76
5	909514	181.577076482161	76
5	909962	181.703069817833	76
5	910019	181.709534484961	76
5	910325	181.759371037281	76
5	910475	181.774302996893	76
5	910803	181.801013527568	76
5	910861	181.805786748641	76
5	911124	181.85954967107	76
5	911353	181.950156806796	76
5	911550	181.961014702105	76
5	911723	181.973188113277	76
5	912031	181.997077459698	76
5	912300	182.012099946668	76
5	912405	182.021793805393	76
5	912626	182.037695419652	76
5	912901	182.049394610908	76
5	913182	182.06921636948	76
5	913256	182.078380921049	76
5	913442	182.116759242576	76
5	913616	182.162849853001	76
5	913743	182.1992068604	76
5	913818	182.224214673571	76
5	914034	182.242964950615	76
5	914366	182.358199963861	76
5	914505	182.369133433751	76
5	914632	182.383148340929	76
5	914859	182.415542214697	76
5	914947	182.42595254682	76
5	915011	182.451358085772	76
5	915249	182.504903001078	76
5	915390	182.519031308951	76
5	915626	182.549895757992	76
5	915753	182.604237698866	76
5	915936	182.62288089656	76
5	916063	182.642423540937	76
5	916246	182.65911926361	76
5	916482	182.69871918778	76
5	916609	182.717109288502	76
5	917108	182.807133421019	76
5	917169	182.812848673796	76
5	917233	182.891156620842	76
5	917464	182.923527937665	76
5	917703	182.951349092465	76
5	918040	182.976797501479	76
5	918170	182.987595421297	76
5	918356	183.009407910267	76
5	918589	183.059318872575	76
5	918848	183.091771239088	76
5	919148	183.235485683191	76
5	919382	183.247472017763	76
5	919493	183.257756106929	76
5	919761	183.295041221699	76
5	919888	183.315471995965	76
5	920156	183.354476582085	76
5	920772	183.436068453351	76
5	920935	183.445173896428	76
5	921033	183.45019407206	76
5	921108	183.458367975165	76
5	921329	183.623731890996	76
5	921505	183.648607889305	76
5	921692	183.665872021024	76
5	921983	183.705222866794	76
5	922321	183.719882524029	76
5	922393	183.724451297914	76
5	922534	183.737133828278	76
5	922981	183.783125045492	76
5	923058	183.79323666465	76
5	923184	183.809074036762	76
5	923373	183.841169207676	76
5	923559	183.864617516202	76
5	923650	183.891112227241	76
5	923775	183.94956889281	76
5	924158	183.985384264333	76
5	924296	183.999042216503	76
5	924583	184.089452373064	76
5	924710	184.116353697513	76
5	925143	184.226587123757	76
5	925485	184.245689828984	76
5	925862	184.263008910689	76
5	926099	184.275559573901	76
5	926186	184.280744241029	76
5	926421	184.295116656759	76
5	926592	184.309777102004	76
5	926809	184.333826630368	76
5	926994	184.363481717506	76
5	927192	184.380088533469	76
5	927539	184.429775529687	76
5	927687	184.438970577984	76
5	927926	184.472201767539	76
5	928284	184.536031681748	76
5	928509	184.547950769776	76
5	928774	184.566085112171	76
5	928969	184.575863163829	76
5	929045	184.583989491058	76
5	929648	184.64650731979	76
5	929840	184.654050853025	76
5	929925	184.659003257092	76
5	930247	184.677049887683	76
5	930375	184.688752354485	76
5	930685	184.712021442846	76
5	930782	184.71651616032	76
5	931014	184.729245496238	76
5	931091	184.737724639384	76
5	931375	184.768415413096	76
5	931571	184.778697063399	76
5	931770	184.797703900059	76
5	932007	184.822955048184	76
5	932301	184.886881251779	76
5	932537	184.908553168494	76
5	932722	184.937404835831	76
5	932998	185.037137907913	76
5	933228	185.167681671963	76
5	933465	185.221896518096	76
5	933594	185.256229816676	76
5	933788	185.285228108497	76
5	934016	185.303286016075	76
5	934202	185.342400866497	76
5	934505	185.425189326921	76
5	934616	185.43123620179	76
5	934744	185.557761127802	76
5	934977	185.603355193915	76
5	935227	185.690242118879	76
5	935456	185.709095248454	76
5	935674	185.752336872567	76
5	935875	185.772664079465	76
5	936059	185.799283809644	76
5	936150	185.809137655473	76
5	936393	185.8849085214	76
5	936632	185.935877542073	76
5	937001	185.992555352139	76
5	937075	186.000364786559	76
5	937311	186.030922420493	76
5	937494	186.050989619588	76
5	937730	186.094854820852	76
5	937963	186.142690786485	76
5	938030	186.158506514371	76
5	938350	186.180624028861	76
5	938689	186.19277323288	76
5	938763	186.201436717624	76
5	939000	186.228099334413	76
5	939242	186.376794503408	76
5	939427	186.391235542314	76
5	939705	186.514078428304	76
5	940010	186.526663917496	76
5	940284	186.540152381732	76
5	940375	186.547103295502	76
5	940695	186.564904546054	76
5	940890	186.577078635771	76
5	940963	186.583545145006	76
5	941102	186.596012730278	76
5	941166	186.630672352422	76
5	941228	186.652608010963	76
5	941399	186.664412754641	76
5	941625	186.675938146686	76
5	941735	186.684372644765	76
5	941863	186.813909331825	76
5	942023	186.825317210341	76
5	942182	186.83465221719	76
5	942489	186.857358150258	76
5	942555	186.87371841456	76
5	942680	186.889999453227	76
5	942919	186.960832523048	76
5	943282	186.981672146138	76
5	943343	186.988900079699	76
5	943573	187.014704412027	76
5	943773	187.1575425388	76
5	943957	187.173108832651	76
5	944254	187.189704007304	76
5	944328	187.198184868732	76
5	944576	187.242276518289	76
5	944727	187.257834938918	76
5	945041	187.329097580843	76
5	945184	187.340869281469	76
5	945420	187.379008413314	76
5	945603	187.417480203415	76
5	945786	187.551589985937	76
5	945972	187.584861888767	76
5	946155	187.767293811515	76
5	946396	187.873637734705	76
5	946636	187.908066821806	76
5	946822	187.95581425115	76
5	946884	187.963425697499	76
5	947081	188.056394153918	76
5	947305	188.074808211469	76
5	947542	188.134967829725	76
5	947668	188.1465591048	76
5	947851	188.192796681805	76
5	947975	188.203476156796	76
5	948102	188.297703260475	76
5	948352	188.350128191346	76
5	948555	188.362638009932	76
5	948844	188.378030310778	76
5	948904	188.3842636716	76
5	949147	188.409317830348	76
5	949556	188.430639837159	76
5	949788	188.452581070086	76
5	949845	188.458405737214	76
5	950082	188.51488503174	76
5	950318	188.683235664087	76
5	950556	188.711708390411	76
5	950620	188.760282235414	76
5	950851	188.824127602075	76
5	951080	188.869873388565	76
5	951245	188.885257639848	76
5	951372	188.927562721865	76
5	951735	188.949628821668	76
5	951806	188.957047895456	76
5	951993	189.016155473477	76
5	952184	189.08696860983	76
5	952370	189.103294983995	76
5	952822	189.200551583962	76
5	952960	189.206354941175	76
5	953100	189.219780044966	76
5	953336	189.308264167353	76
5	953522	189.339213631183	76
5	953799	189.36009239334	76
5	953889	189.364606045211	76
5	954249	189.389877884476	76
5	954357	189.395245626828	76
5	954423	189.477864454855	76
5	954657	189.525409674525	76
5	954901	189.58706818997	76
5	955085	189.603274860234	76
5	955335	189.671614194119	76
5	955542	189.681192409649	76
5	955616	189.690738525844	76
5	955800	189.731377714942	76
5	956203	189.758312835331	76
5	956262	189.763274301037	76
5	956391	189.805821063544	76
5	956577	189.914822168667	76
5	956831	189.948164979444	76
5	957008	189.960443022503	76
5	957068	189.967368824829	76
5	957311	189.990012921644	76
5	957420	189.996458899355	76
5	957779	190.014570497861	76
5	957877	190.023296165812	76
5	958032	190.036469392845	76
5	958159	190.123641317066	76
5	958429	190.149180946115	76
5	958736	190.411989151924	76
5	958922	190.454190632457	76
5	958989	190.467492733251	76
5	959170	190.484332492379	76
5	959362	190.503004783649	76
5	959563	190.518986433207	76
5	959749	190.602470107547	76
5	959813	190.610407387595	76
5	959940	190.64211009224	76
5	960051	190.749363021414	76
5	960238	190.775908014908	76
5	960532	190.885105285938	76
5	960718	190.945568618828	76
5	960783	190.971291486791	76
5	960970	190.998254483471	76
5	961200	191.039130804135	76
5	961262	191.044915494058	76
5	961389	191.118988613593	76
5	961556	191.164790351352	76
5	961797	191.189229599371	76
5	961980	191.206739214998	76
5	962289	191.303485655596	76
5	962631	191.321208364527	76
5	962782	191.332115514278	76
5	963020	191.350724191327	76
5	963188	191.36263332941	76
5	963465	191.399669629726	76
5	963690	191.423635488337	76
5	963811	191.432761225912	76
5	963983	191.446584979233	76
5	964486	191.515683309231	76
5	964629	191.5216100209	76
5	964760	191.526350749749	76
5	964962	191.542930562981	76
5	965413	191.576279676904	76
5	965473	191.581035278905	76
5	965956	191.62747863713	76
5	966110	191.634156126054	76
5	966309	191.643498223993	76
5	966722	191.656391833973	76
5	966808	191.661921042424	76
5	967001	191.672884271034	76
5	967278	191.688760251912	76
5	967388	191.693724436703	76
5	967517	191.710405480199	76
5	967704	191.730865830656	76
5	967833	191.748982075668	76
5	967960	191.786250089635	76
5	968202	191.884734218323	76
5	968390	191.945769911379	76
5	968538	191.966528707277	76
5	968735	192.083025288346	76
5	968890	192.095620329135	76
5	969291	192.151420327901	76
5	969450	192.156092630201	76
5	969718	192.171931510284	76
5	969813	192.195293220309	76
5	970042	192.233758936179	76
5	970409	192.27652951564	76
5	970549	192.292409989015	76
5	970782	192.320846410509	76
5	971012	192.343828254478	76
5	971459	192.402972885934	76
5	971557	192.408773421369	76
5	971634	192.415281519726	76
5	972031	192.456161810088	76
5	972239	192.464554069966	76
5	972365	192.469572963616	76
5	972587	192.481169721929	76
5	972804	192.495483675315	76
5	973077	192.540308240244	76
5	973281	192.556621831495	76
5	973495	192.569261754777	76
5	973783	192.584403426626	76
5	973911	192.59340694701	76
5	974117	192.609073685189	76
5	974299	192.620571789939	76
5	974454	192.635594845385	76
5	974635	192.648701199465	76
5	974829	192.65999497398	76
5	974979	192.668750460773	76
5	975054	192.673690436821	76
5	975183	192.694454196673	76
5	975574	192.750169995471	76
5	975664	192.760911454387	76
5	975992	192.815083529724	76
5	976107	192.92740730764	76
5	976275	192.94325566374	76
5	976402	192.955507843133	76
5	976609	192.981123972398	76
5	976988	192.9990093037	76
5	977046	193.003559280331	76
5	977175	193.020383014602	76
5	977354	193.134743822699	76
5	977619	193.158365557886	76
5	977711	193.235251819153	76
5	977945	193.367599622417	76
5	978142	193.457125315463	76
5	978281	193.472584733554	76
5	978408	193.488770014792	76
5	978600	193.552421864149	76
5	978783	193.568944617378	76
5	978966	193.590309492223	76
5	979205	193.641503667444	76
5	979344	193.656032689134	76
5	979406	193.663567001769	76
5	979684	193.703830768041	76
5	979870	193.767931405689	76
5	980229	193.792807729709	76
5	980439	193.803751824043	76
5	980538	193.808225821019	76
5	980740	193.823391014679	76
5	980848	193.831300953539	76
5	981035	193.8531661483	76
5	981279	193.891855191246	76
5	981497	193.912105928303	76
5	981730	193.966741127817	76
5	981905	193.988914141337	76
5	982088	194.004563809591	76
5	982302	194.046908264043	76
5	982593	194.102412841623	76
5	982960	194.153474054901	76
5	983131	194.158522654759	76
5	983569	194.178600357734	76
5	983694	194.184105024862	76
5	983904	194.193355134851	76
5	984071	194.204670209171	76
5	984209	194.219109933528	76
5	984503	194.241565924377	76
5	984562	194.246603966343	76
5	984722	194.280349473695	76
5	984849	194.307920668883	76
5	985194	194.368271914665	76
5	985337	194.381767577874	76
5	985647	194.45358787629	76
5	985910	194.493659854387	76
5	986292	194.549404596115	76
5	986457	194.560314566301	76
5	986640	194.570911862437	76
5	986879	194.622845948779	76
5	987110	194.642029864375	76
5	987519	194.667128180169	76
5	987594	194.676459539554	76
5	987780	194.69608851546	76
5	988102	194.753906207131	76
5	988308	194.774957545977	76
5	988582	194.798110684625	76
5	988870	194.884247257285	76
5	989363	194.942017116119	76
5	989619	194.954989308084	76
5	989871	194.966355009854	76
5	989987	194.976293451198	76
5	990253	195.131780807963	76
5	990439	195.169501700829	76
5	990595	195.192222128076	76
5	990824	195.20908468616	76
5	990952	195.222210343718	76
5	991139	195.237484956879	76
5	991371	195.322689361499	76
5	991616	195.366191134955	76
5	991787	195.376945392863	76
5	992032	195.424197574354	76
5	992254	195.444323058219	76
5	992464	195.466172029674	76
5	992694	195.48405660865	76
5	992879	195.524470946476	76
5	993067	195.539504645758	76
5	993395	195.569838339403	76
5	993547	195.585453063174	76
5	993776	195.602994013125	76
5	993963	195.634388303801	76
5	994078	195.657822094019	76
5	994260	195.674256562402	76
5	994384	195.685950793652	76
5	994658	195.838449287623	76
5	994852	195.853216318018	76
5	995021	195.866564294522	76
5	995373	195.90308531482	76
5	995434	195.910348697919	76
5	995728	195.931220244189	76
5	995858	195.939150206666	76
5	996004	195.951860151582	76
[...]
850	1494394	287.903088650066	0.98305084745763
850	1494589	287.922962137474	1
850	1515176	291.44842978713	0.98333333333333
850	1515533	291.469263274538	1
850	1523032	292.773695475046	0.98360655737705
850	1523635	292.807488962454	1
850	1524072	292.893136957237	0.98387096774194
850	1524468	292.914705197924	0.96825396825397
850	1524490	292.916210444645	0.98412698412698
850	1524714	292.937138685332	1
850	1539697	295.499694012042	0.984375
850	1539892	295.52180749945	1
850	1557165	298.980384416805	0.98461538461538
850	1557359	299.000897904213	1
850	1565194	300.547953177036	0.98484848484848
850	1565391	300.567826664444	1
850	1643205	313.797913327749	0.98507462686567
850	1643613	313.819706815157	1
850	1655257	315.386311119952	0.98529411764706
850	1655704	315.40970460736	1
850	1657728	315.822672033928	0.98550724637681
850	1658201	315.849025521336	1
850	1685328	320.57228656911	0.98571428571429
850	1685527	320.593760056518	1
850	1698116	323.320950839549	0.98591549295775
850	1698530	323.351464326957	1
850	1712234	326.04939316035	0.98611111111111
850	1712637	326.072786647758	1
850	1721257	327.651969979293	0.98630136986301
850	1721452	327.673763466701	1
850	1723003	328.001766258508	0.98648648648649
850	1723207	328.022599745916	1
850	1723663	328.060731014818	0.98666666666667
850	1724137	328.080604502226	1
850	1734596	329.984487108892	0.98684210526316
850	1735085	330.0121205963	1
850	1740574	331.096837632225	0.98701298701299
850	1740814	331.117991119633	1
850	1775482	337.24327568836	0.98717948717949
850	1775975	337.270637175768	1
850	1806149	343.083771359564	0.9873417721519
850	1806563	343.106844846972	1
850	1835632	348.252293989692	0.9875
850	1835831	348.2740874771	1
850	1839700	349.142383412379	0.98765432098765
850	1839893	349.162576899787	1
850	1851015	351.479683037319	0.98780487804878
850	1851208	351.500196524727	1
850	1865641	353.879811513248	0.98795180722892
850	1865835	353.901285000656	1
850	1869388	354.72169380677	0.98809523809524
850	1870068	354.748687294178	1
850	1891909	359.063320923362	0.98823529411765
850	1892283	359.09785041077	1
850	1920185	364.135696505016	0.98837209302326
850	1920430	364.158449992424	1
850	1925167	364.981105062847	0.98850574712644
850	1925392	365.002898550255	1
850	1930421	365.9890658083	0.98863636363636
850	1930615	366.011499295708	1
850	1932365	366.476253665642	0.98876404494382
850	1932564	366.49836715305	1
850	1939203	367.855955432901	0.98888888888889
850	1939399	367.876788920309	1
850	1946523	369.54978145192	0.98901098901099
850	1946720	369.570294939328	1
850	1954094	370.508842668399	0.98913043478261
850	1954292	370.532556155807	1
850	1954385	370.538461356969	0.98924731182796
850	1954809	370.560574844377	1
850	2010370	380.55303562614	0.98936170212766
850	2010818	380.584637113548	1
850	2024686	383.394061546998	0.98947368421053
850	2024880	383.414575034406	1
850	2027377	383.683091751412	0.98958333333333
850	2027571	383.70360523882	1
850	2033482	384.659760138077	0.98969072164948
850	2033694	384.682193625485	1
850	2047300	387.610444889231	0.98979591836735
850	2047572	387.632238376639	1
850	2048649	387.915166198027	0.98989898989899
850	2048959	387.938239685435	1
850	2050466	388.580441318443	0.99
850	2050661	388.601914805851	1
860	822705	164.832214082393	76
860	823267	164.978104275083	76
860	825139	165.347343380253	76
860	828597	166.010682674066	76
860	840690	168.450805828013	76
860	875572	175.366272209121	76
860	880198	176.391267669312	76
860	887143	177.551414611801	76
860	888105	177.75880213761	76
860	898834	179.314886073025	76
860	908077	181.326844361247	76
860	927246	184.415577120772	76
860	937111	186.007528963281	76
860	955123	189.647580736907	76
860	971050	192.378899964157	76
860	987145	194.645334722957	76
860	994422	195.814735830411	76
860	1019168	200.785962579371	76
860	1025617	201.623527275418	76
860	1028568	201.994175373922	76
860	1034236	202.957781992334	76
860	1055305	206.745557493144	76
860	1064420	208.89348856322	76
860	1067169	209.475405510539	76
860	1068926	209.824216437937	76
860	1115177	217.795555736724	76
860	1140646	222.388797366973	76
860	1141923	222.61880994719	76
860	1169546	227.703177271383	76
860	1214632	237.120351177749	76
860	1230559	239.950401867132	76
860	1235343	240.692996177277	76
860	1244206	242.852457447308	76
860	1245569	243.050786506634	76
860	1259665	245.634040981787	76
860	1302537	253.854799371883	76
860	1312154	255.822169654027	76
860	1314875	256.411515218394	76
860	1319073	257.161236688792	76
860	1320905	257.525706898572	76
860	1332749	259.99370347503	76
860	1349362	262.524342084116	76
860	1376622	267.00636033005	76
860	1401953	271.303955276354	76
860	1417111	273.954780107658	76
860	1422854	274.878291173997	76
860	1450248	280.157722333659	76
860	1452558	280.39003354159	76
860	1465724	282.661315049197	76
860	1479422	284.770740008562	76
860	1482265	285.383567972815	76
860	1483552	285.694482280382	76
860	1484347	285.749153816209	76
860	1496895	288.400208270275	76
860	1504015	289.402181587715	76
860	1504322	289.538256282981	76
860	1506300	290.021085287937	76
860	1509328	290.345239612553	76
860	1533707	294.426701378302	76
860	1552363	298.094919371588	76
860	1557931	299.185078785	76
860	1560325	299.726143833486	76
860	1561531	299.902009076111	76
860	1561977	299.972111693789	76
860	1563507	300.221045948971	76
860	1571403	301.778578950525	76
860	1597102	305.935085351326	76
860	1600658	306.682124621692	76
860	1644671	313.933717237679	76
860	1647170	314.50577451988	76
860	1650509	314.923420926318	76
860	1654017	315.24657499988	76
860	1670300	318.105355882432	76
860	1676909	319.108710306829	76
860	1677018	319.117875735189	76
860	1692816	322.35326326948	76
860	1708055	324.83195447123	76
860	1723470	328.043075592516	76
860	1736037	330.337916908552	76
860	1765714	335.210834902332	76
860	1778838	337.941502831127	76
860	1792852	340.739517247263	76
860	1800025	341.779659137674	76
860	1804799	342.777445564576	76
860	1808735	343.539986079535	76
860	1844773	350.523457949979	76
860	1850051	351.32957200669	76
860	1851295	351.552372297081	76
860	1851306	351.553501069849	76
860	1875853	355.860147492139	76
860	1887880	358.484466777075	76
860	1890229	358.777077750145	76
860	1917693	363.652314916413	76
860	1929288	365.704976222338	76
860	1940768	368.219398649858	76
860	1946095	369.463092693378	76
860	1964270	372.299625974075	76
860	1970168	373.540164105346	76
860	1971347	373.711432733243	76
860	1983668	375.580667555933	76
862	822903	164.855607539605	76
862	823515	165.004825732295	76
862	825472	165.385840837465	76
862	828797	166.033756131278	76
862	840903	168.473239285225	76
862	876117	175.391985666333	76
862	880396	176.412741126524	76
862	887490	177.580008069013	76
862	888390	177.783475594822	76
862	899031	179.337319530237	76
862	908341	181.349597818459	76
862	927687	184.438970577984	76
862	937311	186.030922420493	76
862	955335	189.671614194119	76
862	971557	192.408773421369	76
862	987519	194.667128180169	76
862	994658	195.838449287623	76
862	1019366	200.809036036583	76
862	1026201	201.65890473263	76
862	1028826	202.015008831134	76
862	1034709	202.987015449546	76
862	1055501	206.766070950356	76
862	1064734	208.915602020432	76
862	1067557	209.505454967751	76
862	1069248	209.850169895149	76
862	1115375	217.820229193936	76
862	1140872	222.409630824185	76
862	1142121	222.642523404402	76
862	1169885	227.734650728595	76
862	1214942	237.141824634961	76
862	1230757	239.973475324344	76
862	1235545	240.719269634489	76
862	1245196	242.91973444774	76
862	1245767	243.075139963846	76
862	1259863	245.657114438999	76
862	1302783	253.876272829095	76
862	1312415	255.843003111239	76
862	1315078	256.435228675606	76
862	1319331	257.183670146004	76
862	1321273	257.551420355784	76
862	1333018	260.014536932242	76
862	1349828	262.566440208456	76
862	1376869	267.030073787262	76
862	1402380	271.334148733566	76
862	1417351	273.97625356487	76
862	1423179	274.898484631209	76
862	1450684	280.189900457999	76
862	1452813	280.412786998802	76
862	1465965	282.684068506409	76
862	1479735	284.792853465774	76
862	1482463	285.405041430027	76
862	1483914	285.723075737594	76
862	1484830	285.784531273421	76
862	1497103	288.421681727487	76
862	1504213	289.422695044927	76
862	1504652	289.564929740193	76
862	1506699	290.047758745149	76
862	1509653	290.367353069765	76
862	1533906	294.448494835514	76
862	1553467	298.1466008288	76
862	1558175	299.204632242212	76
862	1560537	299.749217290698	76
862	1561926	299.929002533323	76
862	1562436	299.994225151001	76
862	1563705	300.244119406183	76
862	1572056	301.811140407737	76
862	1597502	305.968094808538	76
862	1600901	306.701998078904	76
862	1644896	313.955830694891	76
862	1647370	314.526287977092	76
862	1651456	314.96017438353	76
862	1654721	315.271648457092	76
862	1670498	318.125869339644	76
862	1677295	319.130823764041	76
862	1677611	319.152117192401	76
862	1693014	322.375696726692	76
862	1708361	324.851507928442	76
862	1723746	328.064549049728	76
862	1736344	330.359390365764	76
862	1766024	335.232628359544	76
862	1779038	337.962976288339	76
862	1793049	340.760350704475	76
862	1800259	341.802732594886	76
862	1804997	342.798279021788	76
862	1809269	343.564019536747	76
862	1845089	350.545251407191	76
862	1850387	351.359765463902	76
862	1851670	351.574805754293	76
862	1851909	351.584870458593	76
862	1876677	355.906661674745	76
862	1888285	358.506900234287	76
862	1890662	358.814360541613	76
862	1917934	363.674428373625	76
862	1929486	365.72772967955	76
862	1941154	368.24831210707	76
862	1946293	369.48648615059	76
862	1964498	372.322059431287	76
862	1970366	373.560677562558	76
862	1972090	373.756906190455	76
862	1983865	375.603101013145	76
863	62	1	76
863	247	3.52712867845	76
863	273	4.11675747222	76
863	392	5.922499440177	76
863	470	7.819201684859	76
863	26922	14.922666653044	76
863	38858	17.683082781858	76
863	70072	23.631327301878	76
863	89643	27.133882938319	76
863	106820	30.427701356367	76
863	113945	31.731823670249	76
863	118773	32.506161766256	76
863	135482	35.616105050714	76
863	137032	36.181760191282	76
863	138726	36.618284967816	76
863	139360	36.902566345308	76
863	144604	37.852872182555	76
863	159736	40.560368260246	76
863	167570	41.885553021924	76
863	198891	47.388744079306	76
863	209918	49.990296997777	76
863	228021	53.201076559291	76
863	230139	53.576987293932	76
863	242641	55.560788244958	76
863	246202	56.701390942449	76
863	250235	57.171128505095	76
863	251441	57.424845436218	76
863	253767	57.927705628218	76
863	254245	57.976835003868	76
863	264963	60.15881292452	76
863	281227	63.465811022933	76
863	286934	64.571313023215	76
863	297018	66.763319259106	76
863	305910	68.393214918601	76
863	322096	71.305371798905	76
863	323748	71.738189138227	76
863	331392	73.042054587896	76
863	335118	73.662851104543	76
863	344713	75.773198998834	76
863	345503	75.929326764588	76
863	371038	80.230065971327	76
863	392937	83.851720047486	76
863	421458	89.299164384155	76
863	432269	91.562599128239	76
863	446279	93.753223794179	76
863	465152	97.27644983237	76
863	473524	98.92148500035	76
863	488175	101.61470306007	76
863	491689	102.051233219369	76
863	520126	107.207658210545	76
863	553928	113.303597406086	76
863	568936	116.108360404797	76
863	581631	118.947533255059	76
863	601908	122.617443656132	76
863	610726	124.372013875255	76
863	610845	124.385920150861	76
863	614996	125.032741615424	76
863	616775	125.449106229582	76
863	693223	140.164738035184	76
863	718722	145.176512843905	76
863	724832	146.151015322212	76
863	749749	150.954604224136	76
863	751375	151.380259631794	76
863	770749	154.876214241238	76
863	776050	156.201768498628	76
863	786029	158.229793844586	76
863	1999165	378.893395411722	76
863	2001825	379.173456175143	76
863	2003803	379.405770378515	76
863	2023201	383.141815695671	76
863	2025215	383.474399726317	76
863	2034217	384.703312314179	76
863	2074584	393.16599854899	76
863	2083951	394.747780190604	76
863	2095334	396.39474602794	76
863	2100693	397.176450181499	76
863	2114143	399.784513514792	76
863	2116488	400.113022358798	76
863	2129995	402.201659567413	76
863	2132381	402.499988937207	76
863	2132909	402.591695958949	76
863	2162007	407.468470470411	76
863	2194188	412.812660941033	76
863	2248851	424.053872813481	76
863	2253503	425.12969097428	76
863	2281680	430.781330060419	76
863	2282922	430.967943001128	76
863	2283735	431.021154727169	76
863	2287558	431.947287036104	76
863	2298166	434.182031391403	76
863	2307993	436.214750083125	76
863	2324672	439.905641103141	76
863	2327680	440.376264100217	76
863	2340731	442.788927524967	76
863	2340742	442.792448374162	76
863	2354217	445.499370481448	76
863	2358856	446.599548042694	76
864	822705	164.832214082393	-nan
864	822903	164.855607539605	1
864	823267	164.978104275083	0.5
864	823515	165.004825732295	1
864	825139	165.347343380253	0.66666666666667
864	825472	165.385840837465	1
864	828597	166.010682674066	0.75
864	828797	166.033756131278	1
864	840690	168.450805828013	0.8
864	840903	168.473239285225	1
864	875572	175.366272209121	0.83333333333333
864	876117	175.391985666333	1
864	880198	176.391267669312	0.85714285714286
864	880396	176.412741126524	1
864	887143	177.551414611801	0.875
864	887490	177.580008069013	1
864	888105	177.75880213761	0.88888888888889
864	888390	177.783475594822	1
864	898834	179.314886073025	0.9
864	899031	179.337319530237	1
864	908077	181.326844361247	0.90909090909091
864	908341	181.349597818459	1
864	927246	184.415577120772	0.91666666666667
864	927687	184.438970577984	1
864	937111	186.007528963281	0.92307692307692
864	937311	186.030922420493	1
864	955123	189.647580736907	0.92857142857143
864	955335	189.671614194119	1
864	971050	192.378899964157	0.93333333333333
864	971557	192.408773421369	1
864	987145	194.645334722957	0.9375
864	987519	194.667128180169	1
864	994422	195.814735830411	0.94117647058824
864	994658	195.838449287623	1
864	1019168	200.785962579371	0.94444444444444
864	1019366	200.809036036583	1
864	1025617	201.623527275418	0.94736842105263
864	1026201	201.65890473263	1
864	1028568	201.994175373922	0.95
864	1028826	202.015008831134	1
864	1034236	202.957781992334	0.95238095238095
864	1034709	202.987015449546	1
864	1055305	206.745557493144	0.95454545454545
864	1055501	206.766070950356	1
864	1064420	208.89348856322	0.95652173913043
864	1064734	208.915602020432	1
864	1067169	209.475405510539	0.95833333333333
864	1067557	209.505454967751	1
864	1068926	209.824216437937	0.96
864	1069248	209.850169895149	1
864	1115177	217.795555736724	0.96153846153846
864	1115375	217.820229193936	1
864	1140646	222.388797366973	0.96296296296296
864	1140872	222.409630824185	1
864	1141923	222.61880994719	0.96428571428571
864	1142121	222.642523404402	1
864	1169546	227.703177271383	0.96551724137931
864	1169885	227.734650728595	1
864	1214632	237.120351177749	0.96666666666667
864	1214942	237.141824634961	1
864	1230559	239.950401867132	0.96774193548387
864	1230757	239.973475324344	1
864	1235343	240.692996177277	0.96875
864	1235545	240.719269634489	1
864	1244206	242.852457447308	0.96969696969697
864	1245196	242.91973444774	1
864	1245569	243.050786506634	0.97058823529412
864	1245767	243.075139963846	1
864	1259665	245.634040981787	0.97142857142857
864	1259863	245.657114438999	1
864	1302537	253.854799371883	0.97222222222222
864	1302783	253.876272829095	1
864	1312154	255.822169654027	0.97297297297297
864	1312415	255.843003111239	1
864	1314875	256.411515218394	0.97368421052632
864	1315078	256.435228675606	1
864	1319073	257.161236688792	0.97435897435897
864	1319331	257.183670146004	1
864	1320905	257.525706898572	0.975
864	1321273	257.551420355784	1
864	1332749	259.99370347503	0.97560975609756
864	1333018	260.014536932242	1
864	1349362	262.524342084116	0.97619047619048
864	1349828	262.566440208456	1
864	1376622	267.00636033005	0.97674418604651
864	1376869	267.030073787262	1
864	1401953	271.303955276354	0.97727272727273
864	1402380	271.334148733566	1
864	1417111	273.954780107658	0.97777777777778
864	1417351	273.97625356487	1
864	1422854	274.878291173997	0.97826086956522
864	1423179	274.898484631209	1
864	1450248	280.157722333659	0.97872340425532
864	1450684	280.189900457999	1
864	1452558	280.39003354159	0.97916666666667
864	1452813	280.412786998802	1
864	1465724	282.661315049197	0.97959183673469
864	1465965	282.684068506409	1
864	1479422	284.770740008562	0.98
864	1479735	284.792853465774	1
864	1482265	285.383567972815	0.98039215686275
864	1482463	285.405041430027	1
864	1483552	285.694482280382	0.98076923076923
864	1483914	285.723075737594	1
864	1484347	285.749153816209	0.9811320754717
864	1484830	285.784531273421	1
864	1496895	288.400208270275	0.98148148148148
864	1497103	288.421681727487	1
864	1504015	289.402181587715	0.98181818181818
864	1504213	289.422695044927	1
864	1504322	289.538256282981	0.98214285714286
864	1504652	289.564929740193	1
864	1506300	290.021085287937	0.98245614035088
864	1506699	290.047758745149	1
864	1509328	290.345239612553	0.98275862068966
864	1509653	290.367353069765	1
864	1533707	294.426701378302	0.98305084745763
864	1533906	294.448494835514	1
864	1552363	298.094919371588	0.98333333333333
864	1553467	298.1466008288	1
864	1557931	299.185078785	0.98360655737705
864	1558175	299.204632242212	1
864	1560325	299.726143833486	0.98387096774194
864	1560537	299.749217290698	1
864	1561531	299.902009076111	0.98412698412698
864	1561926	299.929002533323	1
864	1561977	299.972111693789	0.984375
864	1562436	299.994225151001	1
864	1563507	300.221045948971	0.98461538461538
864	1563705	300.244119406183	1
864	1571403	301.778578950525	0.98484848484848
864	1572056	301.811140407737	1
864	1597102	305.935085351326	0.98507462686567
864	1597502	305.968094808538	1
864	1600658	306.682124621692	0.98529411764706
864	1600901	306.701998078904	1
864	1644671	313.933717237679	0.98550724637681
864	1644896	313.955830694891	1
864	1647170	314.50577451988	0.98571428571429
864	1647370	314.526287977092	1
864	1650509	314.923420926318	0.98591549295775
864	1651456	314.96017438353	1
864	1654017	315.24657499988	0.98611111111111
864	1654721	315.271648457092	1
864	1670300	318.105355882432	0.98630136986301
864	1670498	318.125869339644	1
864	1676909	319.108710306829	0.98648648648649
864	1677018	319.117875735189	0.97333333333333
864	1677295	319.130823764041	0.98666666666667
864	1677611	319.152117192401	1
864	1692816	322.35326326948	0.98684210526316
864	1693014	322.375696726692	1
864	1708055	324.83195447123	0.98701298701299
864	1708361	324.851507928442	1
864	1723470	328.043075592516	0.98717948717949
864	1723746	328.064549049728	1
864	1736037	330.337916908552	0.9873417721519
864	1736344	330.359390365764	1
864	1765714	335.210834902332	0.9875
864	1766024	335.232628359544	1
864	1778838	337.941502831127	0.98765432098765
864	1779038	337.962976288339	1
864	1792852	340.739517247263	0.98780487804878
864	1793049	340.760350704475	1
864	1800025	341.779659137674	0.98795180722892
864	1800259	341.802732594886	1
864	1804799	342.777445564576	0.98809523809524
864	1804997	342.798279021788	1
864	1808735	343.539986079535	0.98823529411765
864	1809269	343.564019536747	1
864	1844773	350.523457949979	0.98837209302326
864	1845089	350.545251407191	1
864	1850051	351.32957200669	0.98850574712644
864	1850387	351.359765463902	1
864	1851295	351.552372297081	0.98863636363636
864	1851306	351.553501069849	0.97752808988764
864	1851670	351.574805754293	0.98876404494382
864	1851909	351.584870458593	1
864	1875853	355.860147492139	0.98888888888889
864	1876677	355.906661674745	1
864	1887880	358.484466777075	0.98901098901099
864	1888285	358.506900234287	1
864	1890229	358.777077750145	0.98913043478261
864	1890662	358.814360541613	1
864	1917693	363.652314916413	0.98924731182796
864	1917934	363.674428373625	1
864	1929288	365.704976222338	0.98936170212766
864	1929486	365.72772967955	1
864	1940768	368.219398649858	0.98947368421053
864	1941154	368.24831210707	1
864	1946095	369.463092693378	0.98958333333333
864	1946293	369.48648615059	1
864	1964270	372.299625974075	0.98969072164948
864	1964498	372.322059431287	1
864	1970168	373.540164105346	0.98979591836735
864	1970366	373.560677562558	1
864	1971347	373.711432733243	0.98989898989899
864	1972090	373.756906190455	1
864	1983668	375.580667555933	0.99
864	1983865	375.603101013145	1
