version 2
run CSMA-0-20161008-13:08:22-14727
attr beaconInterval 10s
attr configname CSMA
attr datetime 20161008-13:08:22
attr experiment CSMA
attr inifile simulations/omnetpp.ini
attr iterationvars "$packetLength=76B, $sendInt=2, $beaconInterval=10s, $0=10s/2, $1=3 * 10s"
attr iterationvars2 "$packetLength=76B, $sendInt=2, $beaconInterval=10s, $0=10s/2, $1=3 * 10s, $repetition=0"
attr measurement "$packetLength=76B, $sendInt=2, $beaconInterval=10s, $0=10s/2, $1=3 * 10s"
attr network multi_gateway.Net802154MultiGateway
attr packetLength 76B
attr processid 14727
attr repetition 0
attr replication #0
attr resultdir ../results
attr runnumber 0
attr seedset 0
attr sendInt 2
param **.configurator.addStaticRoutes false
param **.dumpRoutes false
param **.dumpTopology false
param **.host[*].**.gpsr.beaconInterval "${beaconInterval = 10s}"
param **.host[*].**.gpsr.maxJitter ${$beaconInterval/2}
param **.host[*].**.gpsr.neighborValidityInterval "${3 * $beaconInterval}"
param **.host[*].**.gpsr.positionByteLength "2 B"
param **.host[*].**.gpsr.routingStrategy "\"StraightestPath\""
param **.host[*].**.trafficgen.continueSendingDummyPackets true
param **.host[*].**.trafficgen.coolDownDuration 15s
param **.host[*].**.trafficgen.destAddresses "\"host[0].wrappedHost(modulepath)\""
param **.host[*].**.trafficgen.packetLength "${packetLength = 76B}"
param **.host[*].**.trafficgen.sendInterval "exponential(${sendInt=1.0..2.5 step 0.25}s)"
param **.host[*].**.trafficgen.startTime 30s
param **.host[*].**.trafficgen.warmUpDuration 190s
param **.host[*].**.wlan[*].mac.queueLength 30
param **.host[*].**.wlan[*].macType "\"Ieee802154NarrowbandMac\""
param **.host[*].**.wlan[*].radio.receiver.minInterferencePower "-100 dBm"
param **.host[*].hostType "\"SimpleHost\""
param **.host[*].mobilityType "\"StaticConcentricWrappingMobility\""
param **.host[0].**.trafficgen.numPackets 0
param **.host[1..].**.trafficgen.numPackets 100
param **.numHosts 62
param **.radioMedium.rangeFilter "\"interferenceRange\""
param **.routingTable.addressType "\"modulepath\""
param **.routingTableType "\"GenericRoutingTable\""

vector 9  Net802154MultiGateway.host[0].wrappedHost.trafficgen  sentDummyPk:vector(packetBytes)  ETV
attr interpolationmode  none
attr source  sentDummyPk
attr title  "dummy packets sent, vector(packetBytes)"
vector 23  Net802154MultiGateway.host[1].wrappedHost.trafficgen  sentDummyPk:vector(packetBytes)  ETV
attr interpolationmode  none
attr source  sentDummyPk
attr title  "dummy packets sent, vector(packetBytes)"
vector 37  Net802154MultiGateway.host[2].wrappedHost.trafficgen  sentDummyPk:vector(packetBytes)  ETV
attr interpolationmode  none
attr source  sentDummyPk
attr title  "dummy packets sent, vector(packetBytes)"
vector 51  Net802154MultiGateway.host[3].wrappedHost.trafficgen  sentDummyPk:vector(packetBytes)  ETV
attr interpolationmode  none
attr source  sentDummyPk
attr title  "dummy packets sent, vector(packetBytes)"
vector 65  Net802154MultiGateway.host[4].wrappedHost.trafficgen  sentDummyPk:vector(packetBytes)  ETV
attr interpolationmode  none
attr source  sentDummyPk
attr title  "dummy packets sent, vector(packetBytes)"
vector 79  Net802154MultiGateway.host[5].wrappedHost.trafficgen  sentDummyPk:vector(packetBytes)  ETV
attr interpolationmode  none
attr source  sentDummyPk
attr title  "dummy packets sent, vector(packetBytes)"
vector 93  Net802154MultiGateway.host[6].wrappedHost.trafficgen  sentDummyPk:vector(packetBytes)  ETV
attr interpolationmode  none
attr source  sentDummyPk
attr title  "dummy packets sent, vector(packetBytes)"
vector 107  Net802154MultiGateway.host[7].wrappedHost.trafficgen  sentDummyPk:vector(packetBytes)  ETV
attr interpolationmode  none
attr source  sentDummyPk
attr title  "dummy packets sent, vector(packetBytes)"
vector 121  Net802154MultiGateway.host[8].wrappedHost.trafficgen  sentDummyPk:vector(packetBytes)  ETV
attr interpolationmode  none
attr source  sentDummyPk
attr title  "dummy packets sent, vector(packetBytes)"
vector 135  Net802154MultiGateway.host[9].wrappedHost.trafficgen  sentDummyPk:vector(packetBytes)  ETV
attr interpolationmode  none
attr source  sentDummyPk
attr title  "dummy packets sent, vector(packetBytes)"
vector 149  Net802154MultiGateway.host[10].wrappedHost.trafficgen  sentDummyPk:vector(packetBytes)  ETV
attr interpolationmode  none
attr source  sentDummyPk
attr title  "dummy packets sent, vector(packetBytes)"
vector 163  Net802154MultiGateway.host[11].wrappedHost.trafficgen  sentDummyPk:vector(packetBytes)  ETV
attr interpolationmode  none
attr source  sentDummyPk
attr title  "dummy packets sent, vector(packetBytes)"
vector 177  Net802154MultiGateway.host[12].wrappedHost.trafficgen  sentDummyPk:vector(packetBytes)  ETV
attr interpolationmode  none
attr source  sentDummyPk
attr title  "dummy packets sent, vector(packetBytes)"
vector 191  Net802154MultiGateway.host[13].wrappedHost.trafficgen  sentDummyPk:vector(packetBytes)  ETV
attr interpolationmode  none
attr source  sentDummyPk
attr title  "dummy packets sent, vector(packetBytes)"
vector 205  Net802154MultiGateway.host[14].wrappedHost.trafficgen  sentDummyPk:vector(packetBytes)  ETV
attr interpolationmode  none
attr source  sentDummyPk
attr title  "dummy packets sent, vector(packetBytes)"
vector 219  Net802154MultiGateway.host[15].wrappedHost.trafficgen  sentDummyPk:vector(packetBytes)  ETV
attr interpolationmode  none
attr source  sentDummyPk
attr title  "dummy packets sent, vector(packetBytes)"
vector 233  Net802154MultiGateway.host[16].wrappedHost.trafficgen  sentDummyPk:vector(packetBytes)  ETV
attr interpolationmode  none
attr source  sentDummyPk
attr title  "dummy packets sent, vector(packetBytes)"
vector 247  Net802154MultiGateway.host[17].wrappedHost.trafficgen  sentDummyPk:vector(packetBytes)  ETV
attr interpolationmode  none
attr source  sentDummyPk
attr title  "dummy packets sent, vector(packetBytes)"
vector 261  Net802154MultiGateway.host[18].wrappedHost.trafficgen  sentDummyPk:vector(packetBytes)  ETV
attr interpolationmode  none
attr source  sentDummyPk
attr title  "dummy packets sent, vector(packetBytes)"
vector 275  Net802154MultiGateway.host[19].wrappedHost.trafficgen  sentDummyPk:vector(packetBytes)  ETV
attr interpolationmode  none
attr source  sentDummyPk
attr title  "dummy packets sent, vector(packetBytes)"
vector 289  Net802154MultiGateway.host[20].wrappedHost.trafficgen  sentDummyPk:vector(packetBytes)  ETV
attr interpolationmode  none
attr source  sentDummyPk
attr title  "dummy packets sent, vector(packetBytes)"
vector 303  Net802154MultiGateway.host[21].wrappedHost.trafficgen  sentDummyPk:vector(packetBytes)  ETV
attr interpolationmode  none
attr source  sentDummyPk
attr title  "dummy packets sent, vector(packetBytes)"
vector 317  Net802154MultiGateway.host[22].wrappedHost.trafficgen  sentDummyPk:vector(packetBytes)  ETV
attr interpolationmode  none
attr source  sentDummyPk
attr title  "dummy packets sent, vector(packetBytes)"
vector 331  Net802154MultiGateway.host[23].wrappedHost.trafficgen  sentDummyPk:vector(packetBytes)  ETV
attr interpolationmode  none
attr source  sentDummyPk
attr title  "dummy packets sent, vector(packetBytes)"
vector 345  Net802154MultiGateway.host[24].wrappedHost.trafficgen  sentDummyPk:vector(packetBytes)  ETV
attr interpolationmode  none
attr source  sentDummyPk
attr title  "dummy packets sent, vector(packetBytes)"
vector 359  Net802154MultiGateway.host[25].wrappedHost.trafficgen  sentDummyPk:vector(packetBytes)  ETV
attr interpolationmode  none
attr source  sentDummyPk
attr title  "dummy packets sent, vector(packetBytes)"
vector 373  Net802154MultiGateway.host[26].wrappedHost.trafficgen  sentDummyPk:vector(packetBytes)  ETV
attr interpolationmode  none
attr source  sentDummyPk
attr title  "dummy packets sent, vector(packetBytes)"
vector 387  Net802154MultiGateway.host[27].wrappedHost.trafficgen  sentDummyPk:vector(packetBytes)  ETV
attr interpolationmode  none
attr source  sentDummyPk
attr title  "dummy packets sent, vector(packetBytes)"
vector 401  Net802154MultiGateway.host[28].wrappedHost.trafficgen  sentDummyPk:vector(packetBytes)  ETV
attr interpolationmode  none
attr source  sentDummyPk
attr title  "dummy packets sent, vector(packetBytes)"
vector 415  Net802154MultiGateway.host[29].wrappedHost.trafficgen  sentDummyPk:vector(packetBytes)  ETV
attr interpolationmode  none
attr source  sentDummyPk
attr title  "dummy packets sent, vector(packetBytes)"
vector 429  Net802154MultiGateway.host[30].wrappedHost.trafficgen  sentDummyPk:vector(packetBytes)  ETV
attr interpolationmode  none
attr source  sentDummyPk
attr title  "dummy packets sent, vector(packetBytes)"
vector 443  Net802154MultiGateway.host[31].wrappedHost.trafficgen  sentDummyPk:vector(packetBytes)  ETV
attr interpolationmode  none
attr source  sentDummyPk
attr title  "dummy packets sent, vector(packetBytes)"
vector 457  Net802154MultiGateway.host[32].wrappedHost.trafficgen  sentDummyPk:vector(packetBytes)  ETV
attr interpolationmode  none
attr source  sentDummyPk
attr title  "dummy packets sent, vector(packetBytes)"
vector 471  Net802154MultiGateway.host[33].wrappedHost.trafficgen  sentDummyPk:vector(packetBytes)  ETV
attr interpolationmode  none
attr source  sentDummyPk
attr title  "dummy packets sent, vector(packetBytes)"
vector 485  Net802154MultiGateway.host[34].wrappedHost.trafficgen  sentDummyPk:vector(packetBytes)  ETV
attr interpolationmode  none
attr source  sentDummyPk
attr title  "dummy packets sent, vector(packetBytes)"
vector 499  Net802154MultiGateway.host[35].wrappedHost.trafficgen  sentDummyPk:vector(packetBytes)  ETV
attr interpolationmode  none
attr source  sentDummyPk
attr title  "dummy packets sent, vector(packetBytes)"
vector 513  Net802154MultiGateway.host[36].wrappedHost.trafficgen  sentDummyPk:vector(packetBytes)  ETV
attr interpolationmode  none
attr source  sentDummyPk
attr title  "dummy packets sent, vector(packetBytes)"
vector 527  Net802154MultiGateway.host[37].wrappedHost.trafficgen  sentDummyPk:vector(packetBytes)  ETV
attr interpolationmode  none
attr source  sentDummyPk
attr title  "dummy packets sent, vector(packetBytes)"
vector 541  Net802154MultiGateway.host[38].wrappedHost.trafficgen  sentDummyPk:vector(packetBytes)  ETV
attr interpolationmode  none
attr source  sentDummyPk
attr title  "dummy packets sent, vector(packetBytes)"
vector 555  Net802154MultiGateway.host[39].wrappedHost.trafficgen  sentDummyPk:vector(packetBytes)  ETV
attr interpolationmode  none
attr source  sentDummyPk
attr title  "dummy packets sent, vector(packetBytes)"
vector 569  Net802154MultiGateway.host[40].wrappedHost.trafficgen  sentDummyPk:vector(packetBytes)  ETV
attr interpolationmode  none
attr source  sentDummyPk
attr title  "dummy packets sent, vector(packetBytes)"
vector 583  Net802154MultiGateway.host[41].wrappedHost.trafficgen  sentDummyPk:vector(packetBytes)  ETV
attr interpolationmode  none
attr source  sentDummyPk
attr title  "dummy packets sent, vector(packetBytes)"
vector 597  Net802154MultiGateway.host[42].wrappedHost.trafficgen  sentDummyPk:vector(packetBytes)  ETV
attr interpolationmode  none
attr source  sentDummyPk
attr title  "dummy packets sent, vector(packetBytes)"
vector 611  Net802154MultiGateway.host[43].wrappedHost.trafficgen  sentDummyPk:vector(packetBytes)  ETV
attr interpolationmode  none
attr source  sentDummyPk
attr title  "dummy packets sent, vector(packetBytes)"
vector 625  Net802154MultiGateway.host[44].wrappedHost.trafficgen  sentDummyPk:vector(packetBytes)  ETV
attr interpolationmode  none
attr source  sentDummyPk
attr title  "dummy packets sent, vector(packetBytes)"
vector 639  Net802154MultiGateway.host[45].wrappedHost.trafficgen  sentDummyPk:vector(packetBytes)  ETV
attr interpolationmode  none
attr source  sentDummyPk
attr title  "dummy packets sent, vector(packetBytes)"
vector 653  Net802154MultiGateway.host[46].wrappedHost.trafficgen  sentDummyPk:vector(packetBytes)  ETV
attr interpolationmode  none
attr source  sentDummyPk
attr title  "dummy packets sent, vector(packetBytes)"
vector 667  Net802154MultiGateway.host[47].wrappedHost.trafficgen  sentDummyPk:vector(packetBytes)  ETV
attr interpolationmode  none
attr source  sentDummyPk
attr title  "dummy packets sent, vector(packetBytes)"
vector 681  Net802154MultiGateway.host[48].wrappedHost.trafficgen  sentDummyPk:vector(packetBytes)  ETV
attr interpolationmode  none
attr source  sentDummyPk
attr title  "dummy packets sent, vector(packetBytes)"
vector 695  Net802154MultiGateway.host[49].wrappedHost.trafficgen  sentDummyPk:vector(packetBytes)  ETV
attr interpolationmode  none
attr source  sentDummyPk
attr title  "dummy packets sent, vector(packetBytes)"
vector 709  Net802154MultiGateway.host[50].wrappedHost.trafficgen  sentDummyPk:vector(packetBytes)  ETV
attr interpolationmode  none
attr source  sentDummyPk
attr title  "dummy packets sent, vector(packetBytes)"
vector 723  Net802154MultiGateway.host[51].wrappedHost.trafficgen  sentDummyPk:vector(packetBytes)  ETV
attr interpolationmode  none
attr source  sentDummyPk
attr title  "dummy packets sent, vector(packetBytes)"
vector 737  Net802154MultiGateway.host[52].wrappedHost.trafficgen  sentDummyPk:vector(packetBytes)  ETV
attr interpolationmode  none
attr source  sentDummyPk
attr title  "dummy packets sent, vector(packetBytes)"
vector 751  Net802154MultiGateway.host[53].wrappedHost.trafficgen  sentDummyPk:vector(packetBytes)  ETV
attr interpolationmode  none
attr source  sentDummyPk
attr title  "dummy packets sent, vector(packetBytes)"
vector 765  Net802154MultiGateway.host[54].wrappedHost.trafficgen  sentDummyPk:vector(packetBytes)  ETV
attr interpolationmode  none
attr source  sentDummyPk
attr title  "dummy packets sent, vector(packetBytes)"
vector 779  Net802154MultiGateway.host[55].wrappedHost.trafficgen  sentDummyPk:vector(packetBytes)  ETV
attr interpolationmode  none
attr source  sentDummyPk
attr title  "dummy packets sent, vector(packetBytes)"
vector 793  Net802154MultiGateway.host[56].wrappedHost.trafficgen  sentDummyPk:vector(packetBytes)  ETV
attr interpolationmode  none
attr source  sentDummyPk
attr title  "dummy packets sent, vector(packetBytes)"
vector 807  Net802154MultiGateway.host[57].wrappedHost.trafficgen  sentDummyPk:vector(packetBytes)  ETV
attr interpolationmode  none
attr source  sentDummyPk
attr title  "dummy packets sent, vector(packetBytes)"
vector 821  Net802154MultiGateway.host[58].wrappedHost.trafficgen  sentDummyPk:vector(packetBytes)  ETV
attr interpolationmode  none
attr source  sentDummyPk
attr title  "dummy packets sent, vector(packetBytes)"
vector 835  Net802154MultiGateway.host[59].wrappedHost.trafficgen  sentDummyPk:vector(packetBytes)  ETV
attr interpolationmode  none
attr source  sentDummyPk
attr title  "dummy packets sent, vector(packetBytes)"
vector 849  Net802154MultiGateway.host[60].wrappedHost.trafficgen  sentDummyPk:vector(packetBytes)  ETV
attr interpolationmode  none
attr source  sentDummyPk
attr title  "dummy packets sent, vector(packetBytes)"
vector 863  Net802154MultiGateway.host[61].wrappedHost.trafficgen  sentDummyPk:vector(packetBytes)  ETV
attr interpolationmode  none
attr source  sentDummyPk
attr title  "dummy packets sent, vector(packetBytes)"
vector 412  Net802154MultiGateway.host[29].wrappedHost.trafficgen  sentPk:vector(packetBytes)  ETV
attr interpolationmode  none
attr source  sentPk
attr title  "packets sent, vector(packetBytes)"
vector 416  Net802154MultiGateway.host[29].wrappedHost.trafficgen  PRR:vector  ETV
attr interpolationmode  none
attr source  count(sinkRcvdPk)/count(sentPk)
attr title  "PRR, vector"
vector 414  Net802154MultiGateway.host[29].wrappedHost.trafficgen  sinkRcvdPk:vector(packetBytes)  ETV
attr interpolationmode  none
attr source  sinkRcvdPk
attr title  "own packets received by sink, vector(packetBytes)"
vector 5  Net802154MultiGateway.host[0].wrappedHost.trafficgen  rcvdPk:vector(packetBytes)  ETV
attr interpolationmode  none
attr source  rcvdPk
attr title  "packets received, vector(packetBytes)"
vector 7  Net802154MultiGateway.host[0].wrappedHost.trafficgen  endToEndDelay:vector  ETV
attr interpolationmode  none
attr source  messageAge(rcvdPk)
attr title  "end-to-end delay, vector"
attr unit  s
vector 566  Net802154MultiGateway.host[40].wrappedHost.trafficgen  sentPk:vector(packetBytes)  ETV
attr interpolationmode  none
attr source  sentPk
attr title  "packets sent, vector(packetBytes)"
vector 570  Net802154MultiGateway.host[40].wrappedHost.trafficgen  PRR:vector  ETV
attr interpolationmode  none
attr source  count(sinkRcvdPk)/count(sentPk)
attr title  "PRR, vector"
vector 524  Net802154MultiGateway.host[37].wrappedHost.trafficgen  sentPk:vector(packetBytes)  ETV
attr interpolationmode  none
attr source  sentPk
attr title  "packets sent, vector(packetBytes)"
vector 528  Net802154MultiGateway.host[37].wrappedHost.trafficgen  PRR:vector  ETV
attr interpolationmode  none
attr source  count(sinkRcvdPk)/count(sentPk)
attr title  "PRR, vector"
vector 568  Net802154MultiGateway.host[40].wrappedHost.trafficgen  sinkRcvdPk:vector(packetBytes)  ETV
attr interpolationmode  none
attr source  sinkRcvdPk
attr title  "own packets received by sink, vector(packetBytes)"
vector 90  Net802154MultiGateway.host[6].wrappedHost.trafficgen  sentPk:vector(packetBytes)  ETV
attr interpolationmode  none
attr source  sentPk
attr title  "packets sent, vector(packetBytes)"
vector 94  Net802154MultiGateway.host[6].wrappedHost.trafficgen  PRR:vector  ETV
attr interpolationmode  none
attr source  count(sinkRcvdPk)/count(sentPk)
attr title  "PRR, vector"
vector 92  Net802154MultiGateway.host[6].wrappedHost.trafficgen  sinkRcvdPk:vector(packetBytes)  ETV
attr interpolationmode  none
attr source  sinkRcvdPk
attr title  "own packets received by sink, vector(packetBytes)"
vector 526  Net802154MultiGateway.host[37].wrappedHost.trafficgen  sinkRcvdPk:vector(packetBytes)  ETV
attr interpolationmode  none
attr source  sinkRcvdPk
attr title  "own packets received by sink, vector(packetBytes)"
vector 314  Net802154MultiGateway.host[22].wrappedHost.trafficgen  sentPk:vector(packetBytes)  ETV
attr interpolationmode  none
attr source  sentPk
attr title  "packets sent, vector(packetBytes)"
vector 318  Net802154MultiGateway.host[22].wrappedHost.trafficgen  PRR:vector  ETV
attr interpolationmode  none
attr source  count(sinkRcvdPk)/count(sentPk)
attr title  "PRR, vector"
vector 202  Net802154MultiGateway.host[14].wrappedHost.trafficgen  sentPk:vector(packetBytes)  ETV
attr interpolationmode  none
attr source  sentPk
attr title  "packets sent, vector(packetBytes)"
vector 206  Net802154MultiGateway.host[14].wrappedHost.trafficgen  PRR:vector  ETV
attr interpolationmode  none
attr source  count(sinkRcvdPk)/count(sentPk)
attr title  "PRR, vector"
vector 316  Net802154MultiGateway.host[22].wrappedHost.trafficgen  sinkRcvdPk:vector(packetBytes)  ETV
attr interpolationmode  none
attr source  sinkRcvdPk
attr title  "own packets received by sink, vector(packetBytes)"
vector 204  Net802154MultiGateway.host[14].wrappedHost.trafficgen  sinkRcvdPk:vector(packetBytes)  ETV
attr interpolationmode  none
attr source  sinkRcvdPk
attr title  "own packets received by sink, vector(packetBytes)"
vector 20  Net802154MultiGateway.host[1].wrappedHost.trafficgen  sentPk:vector(packetBytes)  ETV
attr interpolationmode  none
attr source  sentPk
attr title  "packets sent, vector(packetBytes)"
vector 24  Net802154MultiGateway.host[1].wrappedHost.trafficgen  PRR:vector  ETV
attr interpolationmode  none
attr source  count(sinkRcvdPk)/count(sentPk)
attr title  "PRR, vector"
vector 22  Net802154MultiGateway.host[1].wrappedHost.trafficgen  sinkRcvdPk:vector(packetBytes)  ETV
attr interpolationmode  none
attr source  sinkRcvdPk
attr title  "own packets received by sink, vector(packetBytes)"
vector 328  Net802154MultiGateway.host[23].wrappedHost.trafficgen  sentPk:vector(packetBytes)  ETV
attr interpolationmode  none
attr source  sentPk
attr title  "packets sent, vector(packetBytes)"
vector 332  Net802154MultiGateway.host[23].wrappedHost.trafficgen  PRR:vector  ETV
attr interpolationmode  none
attr source  count(sinkRcvdPk)/count(sentPk)
attr title  "PRR, vector"
vector 748  Net802154MultiGateway.host[53].wrappedHost.trafficgen  sentPk:vector(packetBytes)  ETV
attr interpolationmode  none
attr source  sentPk
attr title  "packets sent, vector(packetBytes)"
vector 752  Net802154MultiGateway.host[53].wrappedHost.trafficgen  PRR:vector  ETV
attr interpolationmode  none
attr source  count(sinkRcvdPk)/count(sentPk)
attr title  "PRR, vector"
vector 426  Net802154MultiGateway.host[30].wrappedHost.trafficgen  sentPk:vector(packetBytes)  ETV
attr interpolationmode  none
attr source  sentPk
attr title  "packets sent, vector(packetBytes)"
vector 430  Net802154MultiGateway.host[30].wrappedHost.trafficgen  PRR:vector  ETV
attr interpolationmode  none
attr source  count(sinkRcvdPk)/count(sentPk)
attr title  "PRR, vector"
vector 330  Net802154MultiGateway.host[23].wrappedHost.trafficgen  sinkRcvdPk:vector(packetBytes)  ETV
attr interpolationmode  none
attr source  sinkRcvdPk
attr title  "own packets received by sink, vector(packetBytes)"
vector 650  Net802154MultiGateway.host[46].wrappedHost.trafficgen  sentPk:vector(packetBytes)  ETV
attr interpolationmode  none
attr source  sentPk
attr title  "packets sent, vector(packetBytes)"
vector 654  Net802154MultiGateway.host[46].wrappedHost.trafficgen  PRR:vector  ETV
attr interpolationmode  none
attr source  count(sinkRcvdPk)/count(sentPk)
attr title  "PRR, vector"
vector 750  Net802154MultiGateway.host[53].wrappedHost.trafficgen  sinkRcvdPk:vector(packetBytes)  ETV
attr interpolationmode  none
attr source  sinkRcvdPk
attr title  "own packets received by sink, vector(packetBytes)"
vector 428  Net802154MultiGateway.host[30].wrappedHost.trafficgen  sinkRcvdPk:vector(packetBytes)  ETV
attr interpolationmode  none
attr source  sinkRcvdPk
attr title  "own packets received by sink, vector(packetBytes)"
vector 652  Net802154MultiGateway.host[46].wrappedHost.trafficgen  sinkRcvdPk:vector(packetBytes)  ETV
attr interpolationmode  none
attr source  sinkRcvdPk
attr title  "own packets received by sink, vector(packetBytes)"
vector 664  Net802154MultiGateway.host[47].wrappedHost.trafficgen  sentPk:vector(packetBytes)  ETV
attr interpolationmode  none
attr source  sentPk
attr title  "packets sent, vector(packetBytes)"
vector 668  Net802154MultiGateway.host[47].wrappedHost.trafficgen  PRR:vector  ETV
attr interpolationmode  none
attr source  count(sinkRcvdPk)/count(sentPk)
attr title  "PRR, vector"
vector 594  Net802154MultiGateway.host[42].wrappedHost.trafficgen  sentPk:vector(packetBytes)  ETV
attr interpolationmode  none
attr source  sentPk
attr title  "packets sent, vector(packetBytes)"
vector 598  Net802154MultiGateway.host[42].wrappedHost.trafficgen  PRR:vector  ETV
attr interpolationmode  none
attr source  count(sinkRcvdPk)/count(sentPk)
attr title  "PRR, vector"
vector 666  Net802154MultiGateway.host[47].wrappedHost.trafficgen  sinkRcvdPk:vector(packetBytes)  ETV
attr interpolationmode  none
attr source  sinkRcvdPk
attr title  "own packets received by sink, vector(packetBytes)"
vector 596  Net802154MultiGateway.host[42].wrappedHost.trafficgen  sinkRcvdPk:vector(packetBytes)  ETV
attr interpolationmode  none
attr source  sinkRcvdPk
attr title  "own packets received by sink, vector(packetBytes)"
vector 692  Net802154MultiGateway.host[49].wrappedHost.trafficgen  sentPk:vector(packetBytes)  ETV
attr interpolationmode  none
attr source  sentPk
attr title  "packets sent, vector(packetBytes)"
vector 696  Net802154MultiGateway.host[49].wrappedHost.trafficgen  PRR:vector  ETV
attr interpolationmode  none
attr source  count(sinkRcvdPk)/count(sentPk)
attr title  "PRR, vector"
vector 694  Net802154MultiGateway.host[49].wrappedHost.trafficgen  sinkRcvdPk:vector(packetBytes)  ETV
attr interpolationmode  none
attr source  sinkRcvdPk
attr title  "own packets received by sink, vector(packetBytes)"
vector 398  Net802154MultiGateway.host[28].wrappedHost.trafficgen  sentPk:vector(packetBytes)  ETV
attr interpolationmode  none
attr source  sentPk
attr title  "packets sent, vector(packetBytes)"
vector 402  Net802154MultiGateway.host[28].wrappedHost.trafficgen  PRR:vector  ETV
attr interpolationmode  none
attr source  count(sinkRcvdPk)/count(sentPk)
attr title  "PRR, vector"
vector 400  Net802154MultiGateway.host[28].wrappedHost.trafficgen  sinkRcvdPk:vector(packetBytes)  ETV
attr interpolationmode  none
attr source  sinkRcvdPk
attr title  "own packets received by sink, vector(packetBytes)"
vector 384  Net802154MultiGateway.host[27].wrappedHost.trafficgen  sentPk:vector(packetBytes)  ETV
attr interpolationmode  none
attr source  sentPk
attr title  "packets sent, vector(packetBytes)"
vector 388  Net802154MultiGateway.host[27].wrappedHost.trafficgen  PRR:vector  ETV
attr interpolationmode  none
attr source  count(sinkRcvdPk)/count(sentPk)
attr title  "PRR, vector"
vector 720  Net802154MultiGateway.host[51].wrappedHost.trafficgen  sentPk:vector(packetBytes)  ETV
attr interpolationmode  none
attr source  sentPk
attr title  "packets sent, vector(packetBytes)"
vector 724  Net802154MultiGateway.host[51].wrappedHost.trafficgen  PRR:vector  ETV
attr interpolationmode  none
attr source  count(sinkRcvdPk)/count(sentPk)
attr title  "PRR, vector"
vector 386  Net802154MultiGateway.host[27].wrappedHost.trafficgen  sinkRcvdPk:vector(packetBytes)  ETV
attr interpolationmode  none
attr source  sinkRcvdPk
attr title  "own packets received by sink, vector(packetBytes)"
vector 722  Net802154MultiGateway.host[51].wrappedHost.trafficgen  sinkRcvdPk:vector(packetBytes)  ETV
attr interpolationmode  none
attr source  sinkRcvdPk
attr title  "own packets received by sink, vector(packetBytes)"
vector 146  Net802154MultiGateway.host[10].wrappedHost.trafficgen  sentPk:vector(packetBytes)  ETV
attr interpolationmode  none
attr source  sentPk
attr title  "packets sent, vector(packetBytes)"
vector 150  Net802154MultiGateway.host[10].wrappedHost.trafficgen  PRR:vector  ETV
attr interpolationmode  none
attr source  count(sinkRcvdPk)/count(sentPk)
attr title  "PRR, vector"
vector 148  Net802154MultiGateway.host[10].wrappedHost.trafficgen  sinkRcvdPk:vector(packetBytes)  ETV
attr interpolationmode  none
attr source  sinkRcvdPk
attr title  "own packets received by sink, vector(packetBytes)"
vector 776  Net802154MultiGateway.host[55].wrappedHost.trafficgen  sentPk:vector(packetBytes)  ETV
attr interpolationmode  none
attr source  sentPk
attr title  "packets sent, vector(packetBytes)"
vector 780  Net802154MultiGateway.host[55].wrappedHost.trafficgen  PRR:vector  ETV
attr interpolationmode  none
attr source  count(sinkRcvdPk)/count(sentPk)
attr title  "PRR, vector"
vector 818  Net802154MultiGateway.host[58].wrappedHost.trafficgen  sentPk:vector(packetBytes)  ETV
attr interpolationmode  none
attr source  sentPk
attr title  "packets sent, vector(packetBytes)"
vector 822  Net802154MultiGateway.host[58].wrappedHost.trafficgen  PRR:vector  ETV
attr interpolationmode  none
attr source  count(sinkRcvdPk)/count(sentPk)
attr title  "PRR, vector"
vector 778  Net802154MultiGateway.host[55].wrappedHost.trafficgen  sinkRcvdPk:vector(packetBytes)  ETV
attr interpolationmode  none
attr source  sinkRcvdPk
attr title  "own packets received by sink, vector(packetBytes)"
vector 820  Net802154MultiGateway.host[58].wrappedHost.trafficgen  sinkRcvdPk:vector(packetBytes)  ETV
attr interpolationmode  none
attr source  sinkRcvdPk
attr title  "own packets received by sink, vector(packetBytes)"
vector 468  Net802154MultiGateway.host[33].wrappedHost.trafficgen  sentPk:vector(packetBytes)  ETV
attr interpolationmode  none
attr source  sentPk
attr title  "packets sent, vector(packetBytes)"
vector 472  Net802154MultiGateway.host[33].wrappedHost.trafficgen  PRR:vector  ETV
attr interpolationmode  none
attr source  count(sinkRcvdPk)/count(sentPk)
attr title  "PRR, vector"
vector 470  Net802154MultiGateway.host[33].wrappedHost.trafficgen  sinkRcvdPk:vector(packetBytes)  ETV
attr interpolationmode  none
attr source  sinkRcvdPk
attr title  "own packets received by sink, vector(packetBytes)"
vector 482  Net802154MultiGateway.host[34].wrappedHost.trafficgen  sentPk:vector(packetBytes)  ETV
attr interpolationmode  none
attr source  sentPk
attr title  "packets sent, vector(packetBytes)"
vector 486  Net802154MultiGateway.host[34].wrappedHost.trafficgen  PRR:vector  ETV
attr interpolationmode  none
attr source  count(sinkRcvdPk)/count(sentPk)
attr title  "PRR, vector"
vector 484  Net802154MultiGateway.host[34].wrappedHost.trafficgen  sinkRcvdPk:vector(packetBytes)  ETV
attr interpolationmode  none
attr source  sinkRcvdPk
attr title  "own packets received by sink, vector(packetBytes)"
vector 356  Net802154MultiGateway.host[25].wrappedHost.trafficgen  sentPk:vector(packetBytes)  ETV
attr interpolationmode  none
attr source  sentPk
attr title  "packets sent, vector(packetBytes)"
vector 360  Net802154MultiGateway.host[25].wrappedHost.trafficgen  PRR:vector  ETV
attr interpolationmode  none
attr source  count(sinkRcvdPk)/count(sentPk)
attr title  "PRR, vector"
vector 358  Net802154MultiGateway.host[25].wrappedHost.trafficgen  sinkRcvdPk:vector(packetBytes)  ETV
attr interpolationmode  none
attr source  sinkRcvdPk
attr title  "own packets received by sink, vector(packetBytes)"
vector 734  Net802154MultiGateway.host[52].wrappedHost.trafficgen  sentPk:vector(packetBytes)  ETV
attr interpolationmode  none
attr source  sentPk
attr title  "packets sent, vector(packetBytes)"
vector 738  Net802154MultiGateway.host[52].wrappedHost.trafficgen  PRR:vector  ETV
attr interpolationmode  none
attr source  count(sinkRcvdPk)/count(sentPk)
attr title  "PRR, vector"
vector 216  Net802154MultiGateway.host[15].wrappedHost.trafficgen  sentPk:vector(packetBytes)  ETV
attr interpolationmode  none
attr source  sentPk
attr title  "packets sent, vector(packetBytes)"
vector 220  Net802154MultiGateway.host[15].wrappedHost.trafficgen  PRR:vector  ETV
attr interpolationmode  none
attr source  count(sinkRcvdPk)/count(sentPk)
attr title  "PRR, vector"
vector 218  Net802154MultiGateway.host[15].wrappedHost.trafficgen  sinkRcvdPk:vector(packetBytes)  ETV
attr interpolationmode  none
attr source  sinkRcvdPk
attr title  "own packets received by sink, vector(packetBytes)"
vector 736  Net802154MultiGateway.host[52].wrappedHost.trafficgen  sinkRcvdPk:vector(packetBytes)  ETV
attr interpolationmode  none
attr source  sinkRcvdPk
attr title  "own packets received by sink, vector(packetBytes)"
vector 510  Net802154MultiGateway.host[36].wrappedHost.trafficgen  sentPk:vector(packetBytes)  ETV
attr interpolationmode  none
attr source  sentPk
attr title  "packets sent, vector(packetBytes)"
vector 514  Net802154MultiGateway.host[36].wrappedHost.trafficgen  PRR:vector  ETV
attr interpolationmode  none
attr source  count(sinkRcvdPk)/count(sentPk)
attr title  "PRR, vector"
vector 512  Net802154MultiGateway.host[36].wrappedHost.trafficgen  sinkRcvdPk:vector(packetBytes)  ETV
attr interpolationmode  none
attr source  sinkRcvdPk
attr title  "own packets received by sink, vector(packetBytes)"
vector 832  Net802154MultiGateway.host[59].wrappedHost.trafficgen  sentPk:vector(packetBytes)  ETV
attr interpolationmode  none
attr source  sentPk
attr title  "packets sent, vector(packetBytes)"
vector 836  Net802154MultiGateway.host[59].wrappedHost.trafficgen  PRR:vector  ETV
attr interpolationmode  none
attr source  count(sinkRcvdPk)/count(sentPk)
attr title  "PRR, vector"
vector 834  Net802154MultiGateway.host[59].wrappedHost.trafficgen  sinkRcvdPk:vector(packetBytes)  ETV
attr interpolationmode  none
attr source  sinkRcvdPk
attr title  "own packets received by sink, vector(packetBytes)"
vector 370  Net802154MultiGateway.host[26].wrappedHost.trafficgen  sentPk:vector(packetBytes)  ETV
attr interpolationmode  none
attr source  sentPk
attr title  "packets sent, vector(packetBytes)"
vector 374  Net802154MultiGateway.host[26].wrappedHost.trafficgen  PRR:vector  ETV
attr interpolationmode  none
attr source  count(sinkRcvdPk)/count(sentPk)
attr title  "PRR, vector"
vector 372  Net802154MultiGateway.host[26].wrappedHost.trafficgen  sinkRcvdPk:vector(packetBytes)  ETV
attr interpolationmode  none
attr source  sinkRcvdPk
attr title  "own packets received by sink, vector(packetBytes)"
vector 76  Net802154MultiGateway.host[5].wrappedHost.trafficgen  sentPk:vector(packetBytes)  ETV
attr interpolationmode  none
attr source  sentPk
attr title  "packets sent, vector(packetBytes)"
vector 80  Net802154MultiGateway.host[5].wrappedHost.trafficgen  PRR:vector  ETV
attr interpolationmode  none
attr source  count(sinkRcvdPk)/count(sentPk)
attr title  "PRR, vector"
vector 78  Net802154MultiGateway.host[5].wrappedHost.trafficgen  sinkRcvdPk:vector(packetBytes)  ETV
attr interpolationmode  none
attr source  sinkRcvdPk
attr title  "own packets received by sink, vector(packetBytes)"
vector 48  Net802154MultiGateway.host[3].wrappedHost.trafficgen  sentPk:vector(packetBytes)  ETV
attr interpolationmode  none
attr source  sentPk
attr title  "packets sent, vector(packetBytes)"
vector 52  Net802154MultiGateway.host[3].wrappedHost.trafficgen  PRR:vector  ETV
attr interpolationmode  none
attr source  count(sinkRcvdPk)/count(sentPk)
attr title  "PRR, vector"
vector 50  Net802154MultiGateway.host[3].wrappedHost.trafficgen  sinkRcvdPk:vector(packetBytes)  ETV
attr interpolationmode  none
attr source  sinkRcvdPk
attr title  "own packets received by sink, vector(packetBytes)"
vector 258  Net802154MultiGateway.host[18].wrappedHost.trafficgen  sentPk:vector(packetBytes)  ETV
attr interpolationmode  none
attr source  sentPk
attr title  "packets sent, vector(packetBytes)"
vector 262  Net802154MultiGateway.host[18].wrappedHost.trafficgen  PRR:vector  ETV
attr interpolationmode  none
attr source  count(sinkRcvdPk)/count(sentPk)
attr title  "PRR, vector"
vector 260  Net802154MultiGateway.host[18].wrappedHost.trafficgen  sinkRcvdPk:vector(packetBytes)  ETV
attr interpolationmode  none
attr source  sinkRcvdPk
attr title  "own packets received by sink, vector(packetBytes)"
vector 440  Net802154MultiGateway.host[31].wrappedHost.trafficgen  sentPk:vector(packetBytes)  ETV
attr interpolationmode  none
attr source  sentPk
attr title  "packets sent, vector(packetBytes)"
vector 444  Net802154MultiGateway.host[31].wrappedHost.trafficgen  PRR:vector  ETV
attr interpolationmode  none
attr source  count(sinkRcvdPk)/count(sentPk)
attr title  "PRR, vector"
vector 442  Net802154MultiGateway.host[31].wrappedHost.trafficgen  sinkRcvdPk:vector(packetBytes)  ETV
attr interpolationmode  none
attr source  sinkRcvdPk
attr title  "own packets received by sink, vector(packetBytes)"
vector 230  Net802154MultiGateway.host[16].wrappedHost.trafficgen  sentPk:vector(packetBytes)  ETV
attr interpolationmode  none
attr source  sentPk
attr title  "packets sent, vector(packetBytes)"
vector 234  Net802154MultiGateway.host[16].wrappedHost.trafficgen  PRR:vector  ETV
attr interpolationmode  none
attr source  count(sinkRcvdPk)/count(sentPk)
attr title  "PRR, vector"
vector 232  Net802154MultiGateway.host[16].wrappedHost.trafficgen  sinkRcvdPk:vector(packetBytes)  ETV
attr interpolationmode  none
attr source  sinkRcvdPk
attr title  "own packets received by sink, vector(packetBytes)"
vector 762  Net802154MultiGateway.host[54].wrappedHost.trafficgen  sentPk:vector(packetBytes)  ETV
attr interpolationmode  none
attr source  sentPk
attr title  "packets sent, vector(packetBytes)"
vector 766  Net802154MultiGateway.host[54].wrappedHost.trafficgen  PRR:vector  ETV
attr interpolationmode  none
attr source  count(sinkRcvdPk)/count(sentPk)
attr title  "PRR, vector"
vector 846  Net802154MultiGateway.host[60].wrappedHost.trafficgen  sentPk:vector(packetBytes)  ETV
attr interpolationmode  none
attr source  sentPk
attr title  "packets sent, vector(packetBytes)"
vector 850  Net802154MultiGateway.host[60].wrappedHost.trafficgen  PRR:vector  ETV
attr interpolationmode  none
attr source  count(sinkRcvdPk)/count(sentPk)
attr title  "PRR, vector"
vector 764  Net802154MultiGateway.host[54].wrappedHost.trafficgen  sinkRcvdPk:vector(packetBytes)  ETV
attr interpolationmode  none
attr source  sinkRcvdPk
attr title  "own packets received by sink, vector(packetBytes)"
vector 848  Net802154MultiGateway.host[60].wrappedHost.trafficgen  sinkRcvdPk:vector(packetBytes)  ETV
attr interpolationmode  none
attr source  sinkRcvdPk
attr title  "own packets received by sink, vector(packetBytes)"
vector 62  Net802154MultiGateway.host[4].wrappedHost.trafficgen  sentPk:vector(packetBytes)  ETV
attr interpolationmode  none
attr source  sentPk
attr title  "packets sent, vector(packetBytes)"
vector 66  Net802154MultiGateway.host[4].wrappedHost.trafficgen  PRR:vector  ETV
attr interpolationmode  none
attr source  count(sinkRcvdPk)/count(sentPk)
attr title  "PRR, vector"
vector 64  Net802154MultiGateway.host[4].wrappedHost.trafficgen  sinkRcvdPk:vector(packetBytes)  ETV
attr interpolationmode  none
attr source  sinkRcvdPk
attr title  "own packets received by sink, vector(packetBytes)"
vector 132  Net802154MultiGateway.host[9].wrappedHost.trafficgen  sentPk:vector(packetBytes)  ETV
attr interpolationmode  none
attr source  sentPk
attr title  "packets sent, vector(packetBytes)"
vector 136  Net802154MultiGateway.host[9].wrappedHost.trafficgen  PRR:vector  ETV
attr interpolationmode  none
attr source  count(sinkRcvdPk)/count(sentPk)
attr title  "PRR, vector"
vector 134  Net802154MultiGateway.host[9].wrappedHost.trafficgen  sinkRcvdPk:vector(packetBytes)  ETV
attr interpolationmode  none
attr source  sinkRcvdPk
attr title  "own packets received by sink, vector(packetBytes)"
vector 342  Net802154MultiGateway.host[24].wrappedHost.trafficgen  sentPk:vector(packetBytes)  ETV
attr interpolationmode  none
attr source  sentPk
attr title  "packets sent, vector(packetBytes)"
vector 346  Net802154MultiGateway.host[24].wrappedHost.trafficgen  PRR:vector  ETV
attr interpolationmode  none
attr source  count(sinkRcvdPk)/count(sentPk)
attr title  "PRR, vector"
vector 344  Net802154MultiGateway.host[24].wrappedHost.trafficgen  sinkRcvdPk:vector(packetBytes)  ETV
attr interpolationmode  none
attr source  sinkRcvdPk
attr title  "own packets received by sink, vector(packetBytes)"
vector 160  Net802154MultiGateway.host[11].wrappedHost.trafficgen  sentPk:vector(packetBytes)  ETV
attr interpolationmode  none
attr source  sentPk
attr title  "packets sent, vector(packetBytes)"
vector 164  Net802154MultiGateway.host[11].wrappedHost.trafficgen  PRR:vector  ETV
attr interpolationmode  none
attr source  count(sinkRcvdPk)/count(sentPk)
attr title  "PRR, vector"
vector 162  Net802154MultiGateway.host[11].wrappedHost.trafficgen  sinkRcvdPk:vector(packetBytes)  ETV
attr interpolationmode  none
attr source  sinkRcvdPk
attr title  "own packets received by sink, vector(packetBytes)"
vector 608  Net802154MultiGateway.host[43].wrappedHost.trafficgen  sentPk:vector(packetBytes)  ETV
attr interpolationmode  none
attr source  sentPk
attr title  "packets sent, vector(packetBytes)"
vector 612  Net802154MultiGateway.host[43].wrappedHost.trafficgen  PRR:vector  ETV
attr interpolationmode  none
attr source  count(sinkRcvdPk)/count(sentPk)
attr title  "PRR, vector"
vector 610  Net802154MultiGateway.host[43].wrappedHost.trafficgen  sinkRcvdPk:vector(packetBytes)  ETV
attr interpolationmode  none
attr source  sinkRcvdPk
attr title  "own packets received by sink, vector(packetBytes)"
vector 552  Net802154MultiGateway.host[39].wrappedHost.trafficgen  sentPk:vector(packetBytes)  ETV
attr interpolationmode  none
attr source  sentPk
attr title  "packets sent, vector(packetBytes)"
vector 556  Net802154MultiGateway.host[39].wrappedHost.trafficgen  PRR:vector  ETV
attr interpolationmode  none
attr source  count(sinkRcvdPk)/count(sentPk)
attr title  "PRR, vector"
vector 554  Net802154MultiGateway.host[39].wrappedHost.trafficgen  sinkRcvdPk:vector(packetBytes)  ETV
attr interpolationmode  none
attr source  sinkRcvdPk
attr title  "own packets received by sink, vector(packetBytes)"
vector 244  Net802154MultiGateway.host[17].wrappedHost.trafficgen  sentPk:vector(packetBytes)  ETV
attr interpolationmode  none
attr source  sentPk
attr title  "packets sent, vector(packetBytes)"
vector 248  Net802154MultiGateway.host[17].wrappedHost.trafficgen  PRR:vector  ETV
attr interpolationmode  none
attr source  count(sinkRcvdPk)/count(sentPk)
attr title  "PRR, vector"
vector 246  Net802154MultiGateway.host[17].wrappedHost.trafficgen  sinkRcvdPk:vector(packetBytes)  ETV
attr interpolationmode  none
attr source  sinkRcvdPk
attr title  "own packets received by sink, vector(packetBytes)"
vector 300  Net802154MultiGateway.host[21].wrappedHost.trafficgen  sentPk:vector(packetBytes)  ETV
attr interpolationmode  none
attr source  sentPk
attr title  "packets sent, vector(packetBytes)"
vector 304  Net802154MultiGateway.host[21].wrappedHost.trafficgen  PRR:vector  ETV
attr interpolationmode  none
attr source  count(sinkRcvdPk)/count(sentPk)
attr title  "PRR, vector"
vector 302  Net802154MultiGateway.host[21].wrappedHost.trafficgen  sinkRcvdPk:vector(packetBytes)  ETV
attr interpolationmode  none
attr source  sinkRcvdPk
attr title  "own packets received by sink, vector(packetBytes)"
vector 636  Net802154MultiGateway.host[45].wrappedHost.trafficgen  sentPk:vector(packetBytes)  ETV
attr interpolationmode  none
attr source  sentPk
attr title  "packets sent, vector(packetBytes)"
vector 640  Net802154MultiGateway.host[45].wrappedHost.trafficgen  PRR:vector  ETV
attr interpolationmode  none
attr source  count(sinkRcvdPk)/count(sentPk)
attr title  "PRR, vector"
vector 638  Net802154MultiGateway.host[45].wrappedHost.trafficgen  sinkRcvdPk:vector(packetBytes)  ETV
attr interpolationmode  none
attr source  sinkRcvdPk
attr title  "own packets received by sink, vector(packetBytes)"
vector 580  Net802154MultiGateway.host[41].wrappedHost.trafficgen  sentPk:vector(packetBytes)  ETV
attr interpolationmode  none
attr source  sentPk
attr title  "packets sent, vector(packetBytes)"
vector 584  Net802154MultiGateway.host[41].wrappedHost.trafficgen  PRR:vector  ETV
attr interpolationmode  none
attr source  count(sinkRcvdPk)/count(sentPk)
attr title  "PRR, vector"
vector 678  Net802154MultiGateway.host[48].wrappedHost.trafficgen  sentPk:vector(packetBytes)  ETV
attr interpolationmode  none
attr source  sentPk
attr title  "packets sent, vector(packetBytes)"
vector 682  Net802154MultiGateway.host[48].wrappedHost.trafficgen  PRR:vector  ETV
attr interpolationmode  none
attr source  count(sinkRcvdPk)/count(sentPk)
attr title  "PRR, vector"
vector 538  Net802154MultiGateway.host[38].wrappedHost.trafficgen  sentPk:vector(packetBytes)  ETV
attr interpolationmode  none
attr source  sentPk
attr title  "packets sent, vector(packetBytes)"
vector 542  Net802154MultiGateway.host[38].wrappedHost.trafficgen  PRR:vector  ETV
attr interpolationmode  none
attr source  count(sinkRcvdPk)/count(sentPk)
attr title  "PRR, vector"
vector 582  Net802154MultiGateway.host[41].wrappedHost.trafficgen  sinkRcvdPk:vector(packetBytes)  ETV
attr interpolationmode  none
attr source  sinkRcvdPk
attr title  "own packets received by sink, vector(packetBytes)"
vector 680  Net802154MultiGateway.host[48].wrappedHost.trafficgen  sinkRcvdPk:vector(packetBytes)  ETV
attr interpolationmode  none
attr source  sinkRcvdPk
attr title  "own packets received by sink, vector(packetBytes)"
vector 540  Net802154MultiGateway.host[38].wrappedHost.trafficgen  sinkRcvdPk:vector(packetBytes)  ETV
attr interpolationmode  none
attr source  sinkRcvdPk
attr title  "own packets received by sink, vector(packetBytes)"
vector 174  Net802154MultiGateway.host[12].wrappedHost.trafficgen  sentPk:vector(packetBytes)  ETV
attr interpolationmode  none
attr source  sentPk
attr title  "packets sent, vector(packetBytes)"
vector 178  Net802154MultiGateway.host[12].wrappedHost.trafficgen  PRR:vector  ETV
attr interpolationmode  none
attr source  count(sinkRcvdPk)/count(sentPk)
attr title  "PRR, vector"
vector 176  Net802154MultiGateway.host[12].wrappedHost.trafficgen  sinkRcvdPk:vector(packetBytes)  ETV
attr interpolationmode  none
attr source  sinkRcvdPk
attr title  "own packets received by sink, vector(packetBytes)"
vector 34  Net802154MultiGateway.host[2].wrappedHost.trafficgen  sentPk:vector(packetBytes)  ETV
attr interpolationmode  none
attr source  sentPk
attr title  "packets sent, vector(packetBytes)"
vector 38  Net802154MultiGateway.host[2].wrappedHost.trafficgen  PRR:vector  ETV
attr interpolationmode  none
attr source  count(sinkRcvdPk)/count(sentPk)
attr title  "PRR, vector"
vector 36  Net802154MultiGateway.host[2].wrappedHost.trafficgen  sinkRcvdPk:vector(packetBytes)  ETV
attr interpolationmode  none
attr source  sinkRcvdPk
attr title  "own packets received by sink, vector(packetBytes)"
vector 104  Net802154MultiGateway.host[7].wrappedHost.trafficgen  sentPk:vector(packetBytes)  ETV
attr interpolationmode  none
attr source  sentPk
attr title  "packets sent, vector(packetBytes)"
vector 108  Net802154MultiGateway.host[7].wrappedHost.trafficgen  PRR:vector  ETV
attr interpolationmode  none
attr source  count(sinkRcvdPk)/count(sentPk)
attr title  "PRR, vector"
vector 106  Net802154MultiGateway.host[7].wrappedHost.trafficgen  sinkRcvdPk:vector(packetBytes)  ETV
attr interpolationmode  none
attr source  sinkRcvdPk
attr title  "own packets received by sink, vector(packetBytes)"
vector 804  Net802154MultiGateway.host[57].wrappedHost.trafficgen  sentPk:vector(packetBytes)  ETV
attr interpolationmode  none
attr source  sentPk
attr title  "packets sent, vector(packetBytes)"
vector 808  Net802154MultiGateway.host[57].wrappedHost.trafficgen  PRR:vector  ETV
attr interpolationmode  none
attr source  count(sinkRcvdPk)/count(sentPk)
attr title  "PRR, vector"
vector 806  Net802154MultiGateway.host[57].wrappedHost.trafficgen  sinkRcvdPk:vector(packetBytes)  ETV
attr interpolationmode  none
attr source  sinkRcvdPk
attr title  "own packets received by sink, vector(packetBytes)"
vector 286  Net802154MultiGateway.host[20].wrappedHost.trafficgen  sentPk:vector(packetBytes)  ETV
attr interpolationmode  none
attr source  sentPk
attr title  "packets sent, vector(packetBytes)"
vector 290  Net802154MultiGateway.host[20].wrappedHost.trafficgen  PRR:vector  ETV
attr interpolationmode  none
attr source  count(sinkRcvdPk)/count(sentPk)
attr title  "PRR, vector"
vector 288  Net802154MultiGateway.host[20].wrappedHost.trafficgen  sinkRcvdPk:vector(packetBytes)  ETV
attr interpolationmode  none
attr source  sinkRcvdPk
attr title  "own packets received by sink, vector(packetBytes)"
vector 188  Net802154MultiGateway.host[13].wrappedHost.trafficgen  sentPk:vector(packetBytes)  ETV
attr interpolationmode  none
attr source  sentPk
attr title  "packets sent, vector(packetBytes)"
vector 192  Net802154MultiGateway.host[13].wrappedHost.trafficgen  PRR:vector  ETV
attr interpolationmode  none
attr source  count(sinkRcvdPk)/count(sentPk)
attr title  "PRR, vector"
vector 190  Net802154MultiGateway.host[13].wrappedHost.trafficgen  sinkRcvdPk:vector(packetBytes)  ETV
attr interpolationmode  none
attr source  sinkRcvdPk
attr title  "own packets received by sink, vector(packetBytes)"
vector 496  Net802154MultiGateway.host[35].wrappedHost.trafficgen  sentPk:vector(packetBytes)  ETV
attr interpolationmode  none
attr source  sentPk
attr title  "packets sent, vector(packetBytes)"
vector 500  Net802154MultiGateway.host[35].wrappedHost.trafficgen  PRR:vector  ETV
attr interpolationmode  none
attr source  count(sinkRcvdPk)/count(sentPk)
attr title  "PRR, vector"
vector 498  Net802154MultiGateway.host[35].wrappedHost.trafficgen  sinkRcvdPk:vector(packetBytes)  ETV
attr interpolationmode  none
attr source  sinkRcvdPk
attr title  "own packets received by sink, vector(packetBytes)"
vector 272  Net802154MultiGateway.host[19].wrappedHost.trafficgen  sentPk:vector(packetBytes)  ETV
attr interpolationmode  none
attr source  sentPk
attr title  "packets sent, vector(packetBytes)"
vector 276  Net802154MultiGateway.host[19].wrappedHost.trafficgen  PRR:vector  ETV
attr interpolationmode  none
attr source  count(sinkRcvdPk)/count(sentPk)
attr title  "PRR, vector"
vector 274  Net802154MultiGateway.host[19].wrappedHost.trafficgen  sinkRcvdPk:vector(packetBytes)  ETV
attr interpolationmode  none
attr source  sinkRcvdPk
attr title  "own packets received by sink, vector(packetBytes)"
vector 454  Net802154MultiGateway.host[32].wrappedHost.trafficgen  sentPk:vector(packetBytes)  ETV
attr interpolationmode  none
attr source  sentPk
attr title  "packets sent, vector(packetBytes)"
vector 458  Net802154MultiGateway.host[32].wrappedHost.trafficgen  PRR:vector  ETV
attr interpolationmode  none
attr source  count(sinkRcvdPk)/count(sentPk)
attr title  "PRR, vector"
vector 456  Net802154MultiGateway.host[32].wrappedHost.trafficgen  sinkRcvdPk:vector(packetBytes)  ETV
attr interpolationmode  none
attr source  sinkRcvdPk
attr title  "own packets received by sink, vector(packetBytes)"
vector 118  Net802154MultiGateway.host[8].wrappedHost.trafficgen  sentPk:vector(packetBytes)  ETV
attr interpolationmode  none
attr source  sentPk
attr title  "packets sent, vector(packetBytes)"
vector 122  Net802154MultiGateway.host[8].wrappedHost.trafficgen  PRR:vector  ETV
attr interpolationmode  none
attr source  count(sinkRcvdPk)/count(sentPk)
attr title  "PRR, vector"
vector 120  Net802154MultiGateway.host[8].wrappedHost.trafficgen  sinkRcvdPk:vector(packetBytes)  ETV
attr interpolationmode  none
attr source  sinkRcvdPk
attr title  "own packets received by sink, vector(packetBytes)"
vector 706  Net802154MultiGateway.host[50].wrappedHost.trafficgen  sentPk:vector(packetBytes)  ETV
attr interpolationmode  none
attr source  sentPk
attr title  "packets sent, vector(packetBytes)"
vector 710  Net802154MultiGateway.host[50].wrappedHost.trafficgen  PRR:vector  ETV
attr interpolationmode  none
attr source  count(sinkRcvdPk)/count(sentPk)
attr title  "PRR, vector"
vector 708  Net802154MultiGateway.host[50].wrappedHost.trafficgen  sinkRcvdPk:vector(packetBytes)  ETV
attr interpolationmode  none
attr source  sinkRcvdPk
attr title  "own packets received by sink, vector(packetBytes)"
vector 860  Net802154MultiGateway.host[61].wrappedHost.trafficgen  sentPk:vector(packetBytes)  ETV
attr interpolationmode  none
attr source  sentPk
attr title  "packets sent, vector(packetBytes)"
vector 864  Net802154MultiGateway.host[61].wrappedHost.trafficgen  PRR:vector  ETV
attr interpolationmode  none
attr source  count(sinkRcvdPk)/count(sentPk)
attr title  "PRR, vector"
vector 622  Net802154MultiGateway.host[44].wrappedHost.trafficgen  sentPk:vector(packetBytes)  ETV
attr interpolationmode  none
attr source  sentPk
attr title  "packets sent, vector(packetBytes)"
vector 626  Net802154MultiGateway.host[44].wrappedHost.trafficgen  PRR:vector  ETV
attr interpolationmode  none
attr source  count(sinkRcvdPk)/count(sentPk)
attr title  "PRR, vector"
vector 862  Net802154MultiGateway.host[61].wrappedHost.trafficgen  sinkRcvdPk:vector(packetBytes)  ETV
attr interpolationmode  none
attr source  sinkRcvdPk
attr title  "own packets received by sink, vector(packetBytes)"
vector 624  Net802154MultiGateway.host[44].wrappedHost.trafficgen  sinkRcvdPk:vector(packetBytes)  ETV
attr interpolationmode  none
attr source  sinkRcvdPk
attr title  "own packets received by sink, vector(packetBytes)"
vector 790  Net802154MultiGateway.host[56].wrappedHost.trafficgen  sentPk:vector(packetBytes)  ETV
attr interpolationmode  none
attr source  sentPk
attr title  "packets sent, vector(packetBytes)"
vector 794  Net802154MultiGateway.host[56].wrappedHost.trafficgen  PRR:vector  ETV
attr interpolationmode  none
attr source  count(sinkRcvdPk)/count(sentPk)
attr title  "PRR, vector"
vector 792  Net802154MultiGateway.host[56].wrappedHost.trafficgen  sinkRcvdPk:vector(packetBytes)  ETV
attr interpolationmode  none
attr source  sinkRcvdPk
attr title  "own packets received by sink, vector(packetBytes)"
5	1156266	220.095997049909	76
5	1156531	220.136261180535	76
5	1156687	220.144166937293	76
5	1156809	220.153320042624	76
5	1157070	220.195218049977	76
5	1157193	220.204582065939	76
5	1157259	220.235799196581	76
5	1157575	220.285198138503	76
5	1157808	220.294541239831	76
5	1158018	220.30367650288	76
5	1158146	220.314410786274	76
5	1158441	220.343192576384	76
5	1158641	220.363378613924	76
5	1158967	220.42449326764	76
5	1159223	220.444094393139	76
5	1159412	220.489430101474	76
5	1159637	220.524231516449	76
5	1159856	220.542118107213	76
5	1160048	220.571673012048	76
5	1160230	220.582991384184	76
5	1160735	220.666338227335	76
5	1161017	220.679895891839	76
5	1161258	220.689403785827	76
5	1161335	220.694138421512	76
5	1161582	220.760185907928	76
5	1161803	220.792086230216	76
5	1161862	220.798550897344	76
5	1161990	220.814031799157	76
5	1162074	220.823391555185	76
5	1162294	220.850700470762	76
5	1162582	220.912873662667	76
5	1162841	220.965142742067	76
5	1163041	220.981580407601	76
5	1163169	221.04070435321	76
5	1163355	221.068452107111	76
5	1163647	221.093248486522	76
5	1163834	221.123201516268	76
5	1164064	221.226504243234	76
5	1164126	221.233636145556	76
5	1164336	221.2709530549	76
5	1164448	221.299833930369	76
5	1164542	221.364365333965	76
5	1164667	221.381010556208	76
5	1164903	221.521941815585	76
5	1165087	221.542165666757	76
5	1165216	221.56292453023	76
5	1165623	221.591181251641	76
5	1165721	221.596670937709	76
5	1165800	221.603016046869	76
5	1165863	221.612404300189	76
5	1166073	221.684652718681	76
5	1166233	221.69605420965	76
5	1166356	221.704709625825	76
5	1166497	221.717504038154	76
5	1166767	221.831140766936	76
5	1167074	221.852687197102	76
5	1167226	221.869247033904	76
5	1167429	221.897512074262	76
5	1167597	221.91078933821	76
5	1167905	221.973014842781	76
5	1168042	221.978839509909	76
5	1168182	221.989328737879	76
5	1168370	222.006530957668	76
5	1168669	222.035811553402	76
5	1168846	222.051095346554	76
5	1168969	222.061226252621	76
5	1169158	222.096200269396	76
5	1169644	222.123231783546	76
5	1169729	222.127788495068	76
5	1169905	222.142122475861	76
5	1170065	222.16071364621	76
5	1170125	222.167498313338	76
5	1170184	222.172479350153	76
5	1170645	222.207012732381	76
5	1170740	222.211505041308	76
5	1170914	222.224326582648	76
5	1171236	222.337700615314	76
5	1171313	222.34652858595	76
5	1171767	222.38188116708	76
5	1171845	222.389077806564	76
5	1171987	222.447152764552	76
5	1172160	222.459471611012	76
5	1172467	222.491692957825	76
5	1172691	222.511404180172	76
5	1172924	222.532542401593	76
5	1173185	222.546589034197	76
5	1173535	222.557432593333	76
5	1173639	222.566500449128	76
5	1173853	222.57729970955	76
5	1173930	222.582992160391	76
5	1174133	222.681679900797	76
5	1174345	222.702066264094	76
5	1174651	222.848105258554	76
5	1174776	222.902386260218	76
5	1174965	222.949637624001	76
5	1175175	222.98559574158	76
5	1175362	223.003580791012	76
5	1175544	223.029587461109	76
5	1175719	223.063700971904	76
5	1175846	223.09173047318	76
5	1176139	223.127103955198	76
5	1176368	223.211180772108	76
5	1176543	223.280234359436	76
5	1176607	223.318870080597	76
5	1176838	223.346195646252	76
5	1177024	223.382902856502	76
5	1177232	223.408517990612	76
5	1177372	223.42130718881	76
5	1177604	223.443811702407	76
5	1177976	223.487113129201	76
5	1178050	223.492654934753	76
5	1178240	223.528451334956	76
5	1178617	223.585215319056	76
5	1178862	223.796392175196	76
5	1179210	223.932836237014	76
5	1179396	223.97918108425	76
5	1179524	224.000085763274	76
5	1179807	224.030810232009	76
5	1179918	224.049915921005	76
5	1180043	224.146395804022	76
5	1180228	224.162530192407	76
5	1180400	224.247412496178	76
5	1180527	224.360153866585	76
5	1180674	224.498501738997	76
5	1180763	224.503686406125	76
5	1180966	224.52097111178	76
5	1181247	224.547096616704	76
5	1181311	224.55940497544	76
5	1181510	224.641265982505	76
5	1181598	224.651045591508	76
5	1181843	224.697988663003	76
5	1182060	224.716017890137	76
5	1182293	224.773697210879	76
5	1182353	224.779182425279	76
5	1182571	224.827723229733	76
5	1182807	224.907319408185	76
5	1183119	224.933450832856	76
5	1183193	224.941890527462	76
5	1183423	224.966195705534	76
5	1183487	224.981226107939	76
5	1183725	225.080679086	76
5	1184201	225.108111871541	76
5	1184473	225.120478455868	76
5	1184717	225.133969101759	76
5	1184825	225.141666241813	76
5	1184948	225.150839773619	76
5	1185318	225.181907420473	76
5	1185432	225.189171578835	76
5	1185522	225.196848554264	76
5	1185745	225.216279881568	76
5	1185970	225.235664784893	76
5	1186138	225.249271094119	76
5	1186375	225.278694016702	76
5	1186611	225.322350578046	76
5	1186859	225.351748798795	76
5	1187030	225.364766176448	76
5	1187214	225.387985680508	76
5	1187280	225.490972797674	76
5	1187463	225.547630460925	76
5	1187700	225.59448429082	76
5	1188133	225.69149761802	76
5	1188403	225.701503975583	76
5	1188543	225.706441926869	76
5	1188658	225.713500802418	76
5	1188721	225.718977341081	76
5	1188843	225.728158984236	76
5	1189206	225.850895451941	76
5	1189475	225.867381223324	76
5	1189685	225.887619447559	76
5	1189744	225.892804114687	76
5	1190045	225.94114194544	76
5	1190182	225.955960652319	76
5	1190414	225.995575728324	76
5	1190605	226.045050458277	76
5	1190794	226.087135410728	76
5	1190997	226.106414029119	76
5	1191070	226.111407456668	76
5	1191241	226.125524620677	76
5	1191534	226.202848788609	76
5	1191729	226.220655183097	76
5	1192137	226.250004535254	76
5	1192209	226.257432789752	76
5	1192508	226.303431955899	76
5	1192580	226.309135866201	76
5	1192657	226.314632623027	76
5	1192809	226.321538824489	76
5	1192935	226.332522577588	76
5	1193062	226.373319374956	76
5	1193126	226.38856952811	76
5	1193310	226.431443074605	76
5	1193550	226.460700450369	76
5	1193821	226.476658155042	76
5	1194078	226.492743728703	76
5	1194294	226.507821603818	76
5	1194419	226.520604251522	76
5	1194662	226.541139615538	76
5	1194782	226.550123149379	76
5	1195042	226.602399096137	76
5	1195181	226.612901353377	76
5	1195370	226.648364385878	76
5	1195659	226.679941428992	76
5	1195839	226.701216737717	76
5	1196108	226.86078166747	76
5	1196273	226.86968530151	76
5	1196459	226.886618100979	76
5	1196829	226.959015526766	76
5	1197082	226.968732629877	76
5	1197200	226.973874556191	76
5	1197487	226.985145619663	76
5	1197597	226.993657148612	76
5	1197966	227.012532259232	76
5	1198091	227.021714498758	76
5	1198232	227.034326721081	76
5	1198474	227.100594261439	76
5	1198601	227.136406681929	76
5	1198985	227.169711012713	76
5	1199069	227.174642587041	76
5	1199209	227.18585613817	76
5	1199403	227.205497427171	76
5	1199639	227.269834289987	76
5	1199834	227.318501824329	76
5	1200056	227.336566597679	76
5	1200179	227.345620782867	76
5	1200417	227.408253544688	76
5	1200651	227.520150375349	76
5	1200842	227.589976402319	76
5	1200965	227.600491064657	76
5	1201195	227.661812206003	76
5	1201432	227.681143093541	76
5	1201660	227.692670061352	76
5	1201736	227.702823966633	76
5	1201970	227.738134902288	76
5	1202157	227.75549895617	76
5	1202390	227.789993673636	76
5	1202576	227.807610411445	76
5	1202703	227.82416827834	76
5	1202844	227.86833271739	76
5	1203018	227.880932239744	76
5	1203251	227.902185268078	76
5	1203436	227.927702386624	76
5	1203502	228.060189703496	76
5	1204042	228.109055655486	76
5	1204244	228.118812284275	76
5	1204351	228.124885719143	76
5	1204527	228.133898002951	76
5	1204727	228.143334386271	76
5	1204803	228.151522114785	76
5	1204930	228.172148161308	76
5	1205071	228.192525315552	76
5	1205210	228.207954829607	76
5	1205571	228.24912819653	76
5	1205823	228.264659177443	76
5	1205919	228.270163844571	76
5	1206331	228.282895827826	76
5	1206521	228.289536482643	76
5	1206718	228.299119728754	76
5	1206791	228.307492541923	76
5	1207179	228.335230717202	76
5	1207239	228.339708760128	76
5	1207368	228.34935945124	76
5	1207429	228.355156688193	76
5	1207668	228.470147123514	76
5	1207795	228.482412759838	76
5	1207981	228.514136508233	76
5	1208291	228.554539357989	76
5	1208400	228.560640686051	76
5	1208465	228.601343187552	76
5	1208675	228.685556934888	76
5	1208910	228.706987206221	76
5	1208972	228.712171873349	76
5	1209316	228.734247018575	76
5	1209460	228.746989574732	76
5	1209816	228.78353183416	76
5	1209917	228.792761313034	76
5	1210093	228.800845546918	76
5	1210218	228.810346726124	76
5	1210347	228.834621971509	76
5	1210594	228.895335952587	76
5	1210818	228.915345618676	76
5	1211190	228.976030088991	76
5	1211346	228.982445215834	76
5	1211520	228.996408947667	76
5	1211757	229.027219414185	76
5	1211943	229.050221383991	76
5	1212185	229.104873833708	76
5	1212420	229.129283707524	76
5	1212548	229.164877239309	76
5	1212778	229.243860739873	76
5	1213012	229.269413473671	76
5	1213211	229.281034045876	76
5	1213287	229.29036935646	76
5	1213470	229.302306255661	76
5	1213639	229.312813714231	76
5	1214008	229.360447803361	76
5	1214258	229.379029358943	76
5	1214382	229.391460492079	76
5	1214704	229.433128470211	76
5	1214852	229.448681797508	76
5	1215075	229.46651289024	76
5	1215138	229.473144963387	76
5	1215323	229.497396397832	76
5	1215451	229.524709879817	76
5	1215578	229.636211465529	76
5	1215940	229.664176311924	76
5	1216088	229.675746720009	76
5	1216384	229.701858875855	76
5	1216496	229.70767328921	76
5	1216635	229.723752774546	76
5	1216828	229.741875954713	76
5	1216956	229.784041883465	76
5	1217192	229.860785423226	76
5	1217494	230.022757640184	76
5	1217768	230.058793920181	76
5	1217895	230.095554762805	76
5	1218214	230.193083632617	76
5	1218401	230.210276396667	76
5	1218877	230.318635933356	76
5	1219015	230.332757950152	76
5	1219251	230.364099913313	76
5	1219484	230.415817069754	76
5	1219548	230.433626910573	76
5	1219720	230.492823325414	76
5	1219992	230.510790768625	76
5	1220100	230.51941482271	76
5	1220312	230.543714075885	76
5	1220541	230.698804309912	76
5	1220828	230.717486033672	76
5	1221000	230.733093418727	76
5	1221228	230.75066810964	76
5	1221353	230.761420776768	76
5	1221592	230.782826178405	76
5	1221828	230.833787241316	76
5	1221892	230.884554926421	76
5	1222017	230.904328555756	76
5	1222184	230.925739461292	76
5	1222538	230.989707554467	76
5	1222774	231.000579959997	76
5	1222881	231.006955346603	76
5	1223116	231.106222201726	76
5	1223441	231.171716439082	76
5	1223611	231.18754313618	76
5	1223739	231.215588103207	76
5	1224055	231.356076881188	76
5	1224488	231.395608134515	76
5	1224587	231.400841401147	76
5	1224727	231.411428428904	76
5	1225023	231.445251708414	76
5	1225145	231.454099261298	76
5	1225288	231.486099065934	76
5	1225427	231.497843671241	76
5	1225687	231.57519935222	76
5	1225920	231.617759846963	76
5	1225984	231.638156775623	76
5	1226250	231.676575109229	76
5	1226610	231.763700870669	76
5	1226684	231.771429032048	76
5	1226928	231.806539486404	76
5	1227154	231.8257209507	76
5	1227391	231.871173689445	76
5	1227620	231.893573468385	76
5	1227811	231.91539762092	76
5	1228140	231.990178091707	76
5	1228341	232.00476333237	76
5	1228554	232.018898173953	76
5	1228682	232.069247062653	76
5	1228931	232.108661188143	76
5	1229129	232.127032927622	76
5	1229429	232.174207559674	76
5	1229554	232.185232136306	76
5	1229849	232.250142999602	76
5	1230038	232.400781559541	76
5	1230274	232.452114075801	76
5	1230548	232.488725735617	76
5	1230820	232.500050236924	76
5	1230878	232.505931564078	76
5	1231065	232.532142554441	76
5	1231301	232.606917055786	76
5	1231568	232.640957285079	76
5	1231640	232.64833684308	76
5	1231858	232.667037655979	76
5	1232186	232.708758833619	76
5	1232325	232.724244778176	76
5	1232560	232.795611641857	76
5	1232619	232.801568203392	76
5	1232715	232.914867094199	76
5	1233030	232.939312247595	76
5	1233105	232.943753094606	76
5	1233163	232.948517917793	76
5	1233647	232.977892848078	76
5	1233813	232.986141060446	76
5	1234051	232.999474470438	76
5	1234192	233.013273269633	76
5	1234319	233.0435353331	76
5	1234549	233.096938587491	76
5	1234762	233.163273746732	76
5	1234976	233.190898321458	76
5	1235327	233.237222155842	76
5	1235511	233.25327492848	76
5	1235780	233.318946149587	76
5	1235974	233.348796059377	76
5	1236191	233.368576941964	76
5	1236425	233.399510997083	76
5	1236613	233.438120220357	76
5	1236961	233.472316073437	76
5	1237137	233.480298806545	76
5	1237247	233.486110602063	76
5	1237487	233.583603038187	76
5	1237689	233.598617173325	76
5	1237814	233.615479496883	76
5	1237941	233.642159587919	76
5	1238228	233.680826182066	76
5	1238424	233.701828233046	76
5	1238716	233.739502644864	76
5	1238928	233.752299865665	76
5	1239193	233.824089999096	76
5	1239657	233.861499528672	76
5	1239786	233.866155350092	76
5	1240105	233.87797070031	76
5	1240237	233.885868984199	76
5	1240431	233.897627330732	76
5	1240560	233.905271123039	76
5	1240699	233.917454301391	76
5	1240931	233.933706449722	76
5	1241058	233.955701334229	76
5	1241189	234.020337257223	76
5	1241419	234.043557315573	76
5	1241614	234.074918275609	76
5	1241910	234.095925573337	76
5	1241971	234.101430240465	76
5	1242246	234.130526150153	76
5	1242446	234.150270875547	76
5	1242605	234.183671515482	76
5	1242669	234.205134075953	76
5	1243008	234.233297082647	76
5	1243132	234.243029142204	76
5	1243373	234.286362378223	76
5	1243469	234.402419463265	76
5	1243700	234.538914042287	76
5	1243764	234.552434784339	76
5	1243824	234.558419624913	76
5	1244212	234.654393429987	76
5	1244271	234.659898097115	76
5	1244599	234.707994351405	76
5	1244736	234.722143796863	76
5	1244920	234.79556565982	76
5	1245260	234.837032249971	76
5	1245487	234.850658637772	76
5	1245847	234.872319090065	76
5	1246074	234.888070796954	76
5	1246196	234.894855464082	76
5	1246412	234.908039291609	76
5	1246624	234.920308226258	76
5	1247007	234.942943999207	76
5	1247187	234.958796326914	76
5	1247327	234.970182641091	76
5	1247573	235.111615260453	76
5	1247703	235.130760299239	76
5	1247930	235.152656035724	76
5	1248057	235.187562480037	76
5	1248243	235.260018900936	76
5	1248307	235.281602810035	76
5	1248432	235.311780342019	76
5	1248573	235.357845015149	76
5	1248752	235.369888381588	76
5	1248891	235.383359284206	76
5	1249074	235.478693128278	76
5	1249260	235.514310753435	76
5	1249444	235.581057954248	76
5	1249687	235.628380047132	76
5	1250192	235.713556045018	76
5	1250293	235.719699767972	76
5	1250403	235.724900712146	76
5	1250554	235.739510099039	76
5	1250905	235.757045040857	76
5	1251014	235.765742692516	76
5	1251143	235.783601433889	76
5	1251278	235.794162260671	76
5	1251572	235.815640111327	76
5	1251696	235.827272525392	76
5	1251823	235.853105954948	76
5	1251887	235.866631135135	76
5	1252068	235.914008080909	76
5	1252261	235.953220690877	76
5	1252324	235.964952039889	76
5	1252628	236.014223914682	76
5	1252688	236.019475733231	76
5	1253017	236.069461556398	76
5	1253076	236.073922528137	76
5	1253142	236.112964107905	76
5	1253586	236.145843858851	76
5	1253669	236.152782101853	76
5	1253758	236.157786429686	76
5	1254067	236.174452096558	76
5	1254242	236.191188365672	76
5	1254476	236.245864602079	76
5	1254726	236.37770722268	76
5	1254865	236.391781256012	76
5	1255051	236.438185402836	76
5	1255178	236.46658191608	76
5	1255361	236.488207581163	76
5	1255594	236.521322017568	76
5	1255839	236.553940095072	76
5	1256079	236.57491433028	76
5	1256232	236.590706775684	76
5	1256385	236.605295931436	76
5	1256553	236.618003067091	76
5	1256838	236.647039336567	76
5	1257024	236.663279463103	76
5	1257151	236.733775097176	76
5	1257353	236.79683059228	76
5	1257433	236.803178331794	76
5	1257491	236.807791048308	76
5	1257728	236.830444043042	76
5	1257961	236.856134572476	76
5	1258198	236.874104937484	76
5	1258384	236.890459291376	76
5	1258511	236.939678543968	76
5	1258633	236.949912103138	76
5	1258815	236.96194751234	76
5	1259054	236.976350912865	76
5	1259128	236.985345298123	76
5	1259350	237.001498811185	76
5	1259413	237.00672506278	76
5	1259473	237.011554560363	76
5	1259886	237.043436809185	76
5	1259975	237.051891074224	76
5	1260170	237.072683374703	76
5	1260597	237.093412750452	76
5	1260770	237.102012693799	76
5	1261003	237.115909199481	76
5	1261064	237.125091926179	76
5	1261252	237.164507508289	76
5	1261311	237.170803816528	76
5	1261532	237.233622056943	76
5	1261903	237.25009148613	76
5	1261977	237.257704447808	76
5	1262042	237.287902261926	76
5	1262104	237.311365687054	76
5	1262229	237.347899905454	76
5	1262403	237.403348550418	76
5	1262664	237.428325186397	76
5	1262723	237.432869853525	76
5	1263053	237.459584105149	76
5	1263212	237.468730571469	76
5	1263286	237.476447654592	76
5	1263691	237.515626090361	76
5	1263824	237.524284464494	76
5	1264024	237.541686059685	76
5	1264214	237.591384416722	76
5	1264421	237.666277631544	76
5	1264680	237.681325458277	76
5	1264817	237.694593413127	76
5	1265133	237.723223902105	76
5	1265208	237.733585859468	76
5	1265459	237.756585128533	76
5	1265677	237.772711685391	76
5	1265801	237.782163956812	76
5	1265862	237.791451382509	76
5	1266168	237.877019065511	76
5	1266303	237.884603131712	76
5	1266591	237.899699745496	76
5	1266649	237.90431857359	76
5	1266884	237.958940256666	76
5	1267070	237.983572235047	76
5	1267300	238.039291793465	76
5	1267537	238.164065937962	76
5	1267776	238.193129214498	76
5	1268069	238.218594441178	76
5	1268230	238.232645207474	76
5	1268447	238.249630594434	76
5	1268681	238.306464146602	76
5	1268856	238.330751202862	76
5	1268990	238.340302654294	76
5	1269129	238.351647321422	76
5	1269494	238.388185430106	76
5	1269641	238.393477381335	76
5	1269721	238.402183955256	76
5	1269959	238.446252679244	76
5	1270243	238.527385120903	76
5	1270596	238.542158550611	76
5	1270909	238.555284797639	76
5	1271047	238.560917624421	76
5	1271133	238.565875381723	76
5	1271190	238.570359119908	76
5	1271422	238.59477662121	76
5	1271550	238.624174449019	76
5	1271750	238.653860422199	76
5	1271949	238.671304702953	76
5	1272079	238.69497464409	76
5	1272206	238.735947389335	76
5	1272392	238.761107088239	76
5	1272756	238.785283627661	76
5	1272831	238.793282149169	76
5	1272958	238.87021714023	76
5	1273085	238.891636988877	76
5	1273455	238.960264160293	76
5	1273646	238.972683357331	76
5	1273898	238.985115888466	76
5	1274047	238.993373326016	76
5	1274174	239.003935211292	76
5	1274487	239.202582962456	76
5	1274562	239.211389668688	76
5	1274624	239.218870688119	76
5	1274762	239.259276538419	76
5	1275107	239.278128351406	76
5	1275251	239.29222937626	76
5	1275378	239.354246446934	76
5	1275445	239.423323246533	76
5	1275682	239.471447136036	76
5	1275955	239.48689880659	76
5	1276255	239.495600981727	76
5	1276634	239.508243906182	76
5	1276724	239.513165292353	76
5	1276936	239.527643662563	76
5	1277009	239.536452849762	76
5	1277136	239.580498851095	76
5	1277331	239.595721291441	76
5	1277470	239.610184031618	76
5	1277656	239.635707276598	76
5	1277783	239.678604973311	76
5	1278022	239.699480938592	76
5	1278257	239.737820345875	76
5	1278444	239.811094023928	76
5	1278679	239.858081134851	76
5	1278756	239.866232291297	76
5	1278927	239.879158958345	76
5	1279112	239.900326845471	76
5	1279240	239.9401504406	76
5	1279426	239.979808553494	76
5	1279675	240.006381560986	76
5	1280035	240.031395924261	76
5	1280188	240.037153557546	76
5	1280311	240.043692049445	76
5	1280459	240.049321918096	76
5	1280770	240.063938740115	76
5	1280885	240.071411772404	76
5	1281152	240.090089147941	76
5	1281402	240.155380595258	76
5	1281584	240.218182249291	76
5	1281830	240.252056314935	76
5	1282078	240.270455862972	76
5	1282312	240.314767052381	76
5	1282556	240.344002658996	76
5	1282786	240.364526354374	76
5	1283004	240.373666941917	76
5	1283239	240.389326991269	76
5	1283537	240.407924200581	76
5	1283734	240.423660137229	76
5	1283977	240.438813013909	76
5	1284231	240.459292122941	76
5	1284358	240.481221004678	76
5	1284422	240.500312910671	76
5	1284662	240.534834578801	76
5	1284813	240.549210733106	76
5	1285183	240.618373837934	76
5	1285308	240.630231060211	76
5	1285372	240.68210326341	76
5	1285698	240.711880380634	76
5	1285807	240.719619553674	76
5	1286007	240.739025507636	76
5	1286282	240.76766433541	76
5	1286558	240.782954254386	76
5	1286641	240.787818921514	76
5	1286805	240.802788623551	76
5	1286959	240.816977880026	76
5	1287019	240.822395599846	76
5	1287321	240.854929050828	76
5	1287431	240.863819268857	76
5	1287638	240.988947268092	76
5	1287766	241.003936795789	76
5	1288124	241.036743185257	76
5	1288200	241.045235656621	76
5	1288609	241.166936503602	76
5	1288700	241.171266862875	76
5	1288967	241.186243795669	76
5	1289208	241.197391280596	76
5	1289497	241.219935518716	76
5	1289588	241.228729000311	76
5	1289787	241.336674329155	76
5	1289926	241.347036102513	76
5	1290236	241.37842328715	76
5	1290426	241.398772270659	76
5	1290553	241.415119937713	76
5	1290711	241.430013792735	76
5	1290822	241.513093505019	76
5	1291156	241.605303639777	76
5	1291407	241.650193327183	76
5	1291531	241.659140493925	76
5	1291648	241.670561994311	76
5	1291931	241.724880188291	76
5	1292262	241.879404418227	76
5	1292431	241.893416134027	76
5	1292582	241.908060083253	76
5	1292821	241.931801829257	76
5	1292936	241.947218393522	76
5	1293121	241.964841410498	76
5	1293185	241.983398571099	76
5	1293245	241.990332933227	76
5	1293485	242.065934228979	76
5	1293732	242.093952717094	76
5	1293902	242.107212697715	76
5	1294088	242.12562297165	76
5	1294286	242.139970240783	76
5	1294427	242.152699597752	76
5	1294657	242.179894430387	76
5	1294958	242.225568667686	76
5	1295166	242.236444814704	76
5	1295365	242.246792060032	76
5	1295705	242.257731093506	76
5	1295826	242.26335876349	76
5	1295982	242.271452738968	76
5	1296085	242.278697539314	76
5	1296359	242.300145331464	76
5	1296485	242.315410787771	76
5	1296724	242.364417263898	76
5	1296989	242.385176203897	76
5	1297397	242.44444356394	76
5	1297459	242.451924641568	76
5	1297586	242.506666839821	76
5	1297807	242.633547728842	76
5	1298108	242.685247975276	76
5	1298168	242.693567148494	76
5	1298351	242.735153602862	76
5	1298738	242.785461158433	76
5	1298797	242.791925825561	76
5	1299072	242.832848897288	76
5	1299209	242.846838779889	76
5	1299320	242.892866271528	76
5	1299765	242.924787941131	76
5	1299825	242.934813919404	76
5	1299886	242.941674468948	76
5	1300148	242.975911284791	76
5	1300389	243.002290163102	76
5	1300513	243.012503509532	76
5	1300747	243.042684496454	76
5	1300867	243.052949321681	76
5	1301048	243.067395434159	76
5	1301273	243.081664195979	76
5	1301346	243.087820297055	76
5	1301735	243.195762663862	76
5	1301798	243.2075162047	76
5	1302065	243.231779143241	76
5	1302469	243.247590483566	76
5	1302958	243.26252347577	76
5	1303045	243.267093210846	76
5	1303123	243.274498537309	76
5	1303212	243.284875583411	76
5	1303479	243.328637726613	76
5	1303841	243.389556962926	76
5	1303901	243.394421630054	76
5	1304225	243.481224445175	76
5	1304624	243.540413380798	76
5	1304812	243.553914924977	76
5	1304996	243.57022121331	76
5	1305163	243.617559659828	76
5	1305290	243.64403909071	76
5	1305535	243.738934667765	76
5	1305661	243.74987354974	76
5	1305919	243.867265233939	76
5	1305983	243.887961427377	76
5	1306045	243.898758451107	76
5	1306320	243.943999474404	76
5	1306506	243.981393247759	76
5	1306775	244.036243727823	76
5	1307099	244.077110648211	76
5	1307466	244.165961858299	76
5	1307829	244.21231779575	76
5	1307961	244.218443768485	76
5	1308071	244.225484624307	76
5	1308199	244.264550926626	76
5	1308373	244.312629528753	76
5	1308594	244.370787441287	76
5	1309010	244.39524275177	76
5	1309168	244.401067418898	76
5	1309320	244.416349218663	76
5	1309712	244.479383214996	76
5	1309861	244.491541675064	76
5	1309954	244.500483666776	76
5	1310127	244.537377093726	76
5	1310404	244.575578688612	76
5	1310513	244.581227224195	76
5	1310580	244.644716955797	76
5	1310793	244.702536075643	76
5	1310952	244.709909893976	76
5	1311139	244.721238979768	76
5	1311199	244.727156082136	76
5	1311322	244.736829920993	76
5	1311420	244.766415095993	76
5	1311545	244.792578397936	76
5	1311796	244.819322579227	76
5	1312008	244.837286939102	76
5	1312072	244.902867225906	76
5	1312257	245.108719456368	76
5	1312321	245.130828707446	76
5	1312614	245.178231416484	76
5	1312747	245.185016083612	76
5	1312862	245.19356811297	76
5	1313066	245.212279883154	76
5	1313491	245.261302076321	76
5	1313567	245.268015175733	76
5	1313627	245.272986992424	76
5	1313823	245.297534307782	76
5	1314051	245.317382176737	76
5	1314173	245.377380664419	76
5	1314411	245.391905433572	76
5	1314516	245.398648157033	76
5	1314809	245.446806350367	76
5	1314979	245.460940133628	76
5	1315171	245.494870549945	76
5	1315352	245.509709593783	76
5	1315590	245.600022933451	76
5	1315654	245.702480049832	76
5	1315891	245.751466656797	76
5	1315953	245.75871126771	76
5	1316017	245.779120520428	76
5	1316326	245.808715799799	76
5	1316635	245.82337478319	76
5	1316810	245.832293568847	76
5	1317073	245.844988392839	76
5	1317181	245.84989400226	76
5	1317481	245.941781669562	76
5	1317654	245.952903546282	76
5	1317719	245.982058661776	76
5	1317900	245.998554089589	76
5	1318097	246.024243931872	76
5	1318457	246.042436035813	76
5	1318599	246.057276483337	76
5	1318792	246.080905571864	76
5	1318928	246.093135521486	76
5	1319214	246.13362234357	76
5	1319421	246.153367010698	76
5	1319674	246.172168324825	76
5	1319780	246.181204812421	76
5	1320353	246.250907931559	76
5	1320438	246.255373525476	76
5	1320512	246.264142403857	76
5	1320754	246.418857038293	76
5	1320818	246.481280806004	76
5	1320943	246.534097501915	76
5	1321320	246.655516342502	76
5	1321420	246.665435564953	76
5	1321507	246.670794585135	76
5	1321737	246.688651951313	76
5	1321993	246.709630308666	76
5	1322106	246.71585539097	76
5	1322412	246.73070574857	76
5	1322591	246.736316998563	76
5	1322712	246.745900113266	76
5	1323059	246.800336174048	76
5	1323243	246.815589553242	76
5	1323427	246.837105472051	76
5	1323662	246.884376938304	76
5	1323860	246.936039893006	76
5	1324063	246.950541852619	76
5	1324261	246.963983810385	76
5	1324431	246.978935858943	76
5	1324669	246.996358580608	76
5	1324898	247.014144645196	76
5	1325082	247.037380897869	76
5	1325317	247.130522779704	76
5	1325559	247.196285244994	76
5	1325686	247.283356965192	76
5	1325922	247.366440854015	76
5	1326106	247.446157305587	76
5	1326231	247.48455674999	76
5	1326405	247.496471626703	76
5	1326704	247.517219296161	76
5	1326765	247.525660363773	76
5	1327150	247.5580713705	76
5	1327364	247.57064614856	76
5	1327423	247.576588733138	76
5	1327557	247.600875386898	76
5	1327743	247.619190210296	76
5	1327979	247.665205186049	76
5	1328165	247.687804723869	76
5	1328351	247.7192797303	76
5	1328636	247.74442876265	76
5	1328820	247.761343493443	76
5	1328947	247.787674621812	76
5	1329245	247.826112724122	76
5	1329372	247.842495128352	76
5	1329607	247.869098668667	76
5	1329731	247.880167756014	76
5	1329992	247.941376519933	76
5	1330055	247.947521187061	76
5	1330281	247.969942037857	76
5	1330797	248.011066496091	76
5	1330974	248.020707104762	76
5	1331101	248.030692477471	76
5	1331224	248.042596473947	76
5	1331475	248.066484346074	76
5	1331680	248.080230951432	76
5	1331938	248.096429058891	76
5	1332047	248.105221447628	76
5	1332112	248.120551854469	76
5	1332421	248.144225332107	76
5	1332721	248.168066636434	76
5	1332780	248.175049407117	76
5	1332844	248.320464495266	76
5	1332906	248.379825819554	76
5	1333264	248.449749199943	76
5	1333326	248.455809510573	76
5	1333562	248.548339693657	76
5	1333745	248.684578351622	76
5	1334136	248.727793993548	76
5	1334331	248.73820168804	76
5	1334487	248.747588173336	76
5	1334626	248.761741688751	76
5	1334854	248.817083994412	76
5	1335095	248.868967899243	76
5	1335222	248.900561729538	76
5	1335408	248.920251984235	76
5	1335647	248.951789373192	76
5	1335711	248.962746742647	76
5	1335946	249.034097000277	76
5	1336134	249.056766538525	76
5	1336489	249.116586783126	76
5	1336613	249.129067450254	76
5	1336849	249.173839873419	76
5	1336913	249.240341774726	76
5	1336975	249.311202769909	76
5	1337317	249.362637220458	76
5	1337436	249.371274382113	76
5	1337562	249.38328342468	76
5	1337758	249.402210641149	76
5	1337897	249.416531046111	76
5	1338027	249.442201840853	76
5	1338260	249.465709995303	76
5	1338387	249.510144474322	76
5	1338621	249.573757348546	76
5	1338853	249.600370306533	76
5	1338980	249.619599789522	76
[...]
850	2003953	361.673326287124	0.95774647887324
850	2004319	361.696399774532	0.97183098591549
850	2005009	361.800382435529	0.95833333333333
850	2005236	361.822495922937	0.97222222222222
850	2022668	364.683498786637	0.95890410958904
850	2023034	364.707212274045	0.97260273972603
850	2097013	376.626612013235	0.95945945945946
850	2097266	376.650005500643	0.97297297297297
850	2114284	380.116493266453	0.96
850	2114554	380.135726753861	0.97333333333333
850	2136146	383.368444125917	0.96052631578947
850	2136404	383.391517613325	0.97368421052632
850	2158067	386.498637153134	0.96103896103896
850	2158555	386.523310640542	0.97402597402597
850	2163696	387.645780683871	0.96153846153846
850	2164112	387.670902171279	0.97435897435897
850	2185528	391.400747319181	0.9620253164557
850	2185871	391.424780806589	0.9746835443038
850	2191319	392.503790844072	0.9625
850	2191649	392.52590433148	0.975
850	2195460	393.275331850154	0.96296296296296
850	2195811	393.298085337562	0.97530864197531
850	2236239	399.329115828174	0.96341463414634
850	2236518	399.349309315582	0.97560975609756
850	2237745	399.512522311382	0.96385542168675
850	2238070	399.53431579879	0.97590361445783
850	2261772	404.015518064559	0.96428571428571
850	2262221	404.047119551967	0.97619047619048
850	2266040	404.66021461172	0.96470588235294
850	2266618	404.701944099128	0.97647058823529
850	2279284	407.163349634222	0.96511627906977
850	2279778	407.18810312163	0.97674418604651
850	2282413	407.519640170908	0.96551724137931
850	2282831	407.538553658316	0.97701149425287
850	2286057	407.961120836424	0.96590909090909
850	2286320	407.983874323832	0.97727272727273
850	2296619	410.347742616806	0.96629213483146
850	2297064	410.374096104214	0.97752808988764
850	2310075	412.717032162911	0.96666666666667
850	2310288	412.740425650319	0.97777777777778
850	2314212	413.306024410196	0.96703296703297
850	2314411	413.327817897604	0.97802197802198
850	2324177	414.704404053779	0.96739130434783
850	2324371	414.722997541187	0.97826086956522
850	2328932	415.633816370139	0.96774193548387
850	2329440	415.672442524675	0.97849462365591
850	2335130	416.567194892646	0.96808510638298
850	2335438	416.587708380054	0.97872340425532
850	2344284	418.107282647641	0.96842105263158
850	2344478	418.128756135049	0.97894736842105
850	2398810	427.549894212567	0.96875
850	2399005	427.571367699975	0.97916666666667
850	2415371	430.02965213777	0.96907216494845
850	2415790	430.061845625178	0.97938144329897
850	2416242	430.131925033275	0.96938775510204
850	2416479	430.156598520683	0.97959183673469
850	2423399	431.237444134186	0.96969696969697
850	2423949	431.259237621594	0.97979797979798
850	2424312	431.305570312038	0.97
850	2425012	431.344611799446	0.98
860	1196510	226.947579172665	76
860	1201773	227.718261445076	76
860	1205376	228.241265720231	76
860	1210856	228.954556631779	76
860	1216994	229.839631966014	76
860	1222458	230.985801889391	76
860	1259523	237.024129617012	76
860	1267339	238.14387248075	76
860	1268719	238.319149197082	76
860	1292018	241.864502676815	76
860	1307241	244.141928401087	76
860	1328999	247.81231767114	76
860	1335748	249.010383543065	76
860	1347630	251.276630729547	76
860	1363115	253.796090288871	76
860	1383631	257.193326386776	76
860	1394707	259.417849747876	76
860	1395766	259.601649835463	76
860	1403479	260.896018734745	76
860	1421849	263.754359706333	76
860	1431440	265.171340909747	76
860	1444352	267.84939562318	76
860	1452606	269.118669613051	76
860	1481162	273.20319787508	76
860	1491937	275.413535647811	76
860	1498074	276.774218950002	76
860	1503013	277.542481114676	76
860	1530114	281.779772792883	76
860	1561963	286.590600453589	76
860	1562620	286.630132722545	76
860	1587560	290.704098126824	76
860	1595724	291.969574022789	76
860	1597413	292.223729765524	76
860	1598917	292.450069734256	76
860	1602288	292.874389039266	76
860	1657799	303.4201178797	76
860	1697885	310.131355283577	76
860	1709815	312.302681215792	76
860	1732775	315.514546989205	76
860	1733976	315.711644154271	76
860	1736270	316.247489985398	76
860	1743835	317.806687613279	76
860	1765632	321.393194149611	76
860	1775981	323.459429165472	76
860	1776483	323.511735016517	76
860	1803751	328.189807968836	76
860	1818383	331.191864341997	76
860	1829830	332.576086674183	76
860	1835924	333.633433602323	76
860	1844638	334.895139836222	76
860	1848910	335.620147567489	76
860	1850473	335.991547823748	76
860	1935583	350.342717435177	76
860	1941087	351.223861219896	76
860	1955188	353.252487288644	76
860	1959233	354.00304743043	76
860	1983336	358.045052933257	76
860	2001093	361.184453881336	76
860	2002985	361.391615181905	76
860	2037869	367.447417087223	76
860	2047233	368.712531122015	76
860	2059208	370.746158462354	76
860	2064889	371.808485184365	76
860	2069144	372.300024294183	76
860	2075410	373.215817513391	76
860	2086552	374.888084705874	76
860	2087507	375.006580449865	76
860	2097473	376.698222672719	76
860	2108529	378.982704948424	76
860	2147785	385.114457207056	76
860	2148768	385.234473951032	76
860	2161621	387.276307809292	76
860	2166827	388.429075915005	76
860	2187808	391.954060649815	76
860	2206345	394.638816825288	76
860	2223671	397.115696287936	76
860	2247871	401.50417944186	76
860	2248365	401.564224624914	76
860	2248664	401.655931213688	76
860	2252358	402.2901325142	76
860	2268040	405.088404307842	76
860	2278185	407.000043857183	76
860	2288328	408.465759077469	76
860	2293620	409.875204545554	76
860	2298138	410.607862317803	76
860	2302026	411.470216684588	76
860	2323127	414.551409008772	76
860	2338760	417.228284172534	76
860	2349738	419.890809405615	76
860	2366068	422.301116386593	76
860	2394816	426.929079770542	76
860	2397428	427.337401215916	76
860	2406917	428.90908682553	76
860	2408772	428.999674577262	76
860	2408898	429.004907737908	76
860	2411076	429.408318925668	76
860	2424301	431.301094233289	76
860	2452051	435.78754151902	76
860	2464267	437.821326113516	76
860	2481509	440.698620693693	76
862	1197082	226.968732629877	76
862	1201970	227.738134902288	76
862	1205919	228.270163844571	76
862	1211190	228.976030088991	76
862	1217192	229.860785423226	76
862	1222881	231.006955346603	76
862	1259975	237.051891074224	76
862	1267537	238.164065937962	76
862	1269129	238.351647321422	76
862	1292431	241.893416134027	76
862	1307466	244.165961858299	76
862	1329372	247.842495128352	76
862	1335946	249.034097000277	76
862	1348025	251.304264186759	76
862	1363557	253.823723746083	76
862	1383913	257.215759843988	76
862	1395258	259.446619205088	76
862	1395964	259.623763292675	76
862	1403870	260.918132191957	76
862	1422246	263.776793163545	76
862	1431686	265.193454366959	76
862	1444549	267.871189080392	76
862	1453304	269.157231737391	76
862	1481360	273.225631332292	76
862	1492310	275.444769105023	76
862	1498503	276.801580407214	76
862	1503213	277.563634571888	76
862	1530367	281.801246250095	76
862	1562212	286.610793910801	76
862	1563235	286.657766179757	76
862	1587758	290.725571584036	76
862	1595922	291.991367480001	76
862	1597870	292.249491222736	76
862	1599115	292.472823191468	76
862	1602521	292.898742496478	76
862	1658050	303.441271336912	76
862	1698219	310.160908740789	76
862	1710056	312.326714673004	76
862	1733017	315.536660446417	76
862	1734234	315.733117611483	76
862	1736468	316.27024344261	76
862	1744359	317.833361070491	76
862	1765918	321.413067606823	76
862	1776398	323.488022622684	76
862	1776739	323.535448473729	76
862	1803952	328.213201426048	76
862	1818927	331.217497799209	76
862	1830179	332.598520131395	76
862	1836122	333.656507059535	76
862	1845081	334.921493293434	76
862	1849110	335.642581024701	76
862	1850672	336.01430128096	76
862	1935781	350.363870892389	76
862	1941391	351.245654677108	76
862	1955506	353.273640745856	76
862	1959692	354.03258555477	76
862	1983576	358.068446390469	76
862	2001504	361.206567338548	76
862	2003183	361.414688639117	76
862	2047745	368.742532579227	76
862	2059535	370.771471919566	76
862	2065091	371.830278641577	76
862	2069582	372.322457751395	76
862	2076034	373.243450970603	76
862	2086776	374.910518163086	76
862	2087853	375.034533907077	76
862	2097701	376.720976129931	76
862	2108858	379.002898405636	76
862	2147983	385.136250664268	76
862	2149147	385.264667408244	76
862	2161850	387.296501266504	76
862	2167596	388.463829372217	76
862	2188359	391.986942107027	76
862	2206543	394.6602902825	76
862	2224392	397.147025745148	76
862	2248189	401.524052899072	76
862	2248564	401.584098082126	76
862	2248908	401.6780446709	76
862	2252981	402.334645971412	76
862	2268237	405.110197765054	76
862	2278382	407.021837314395	76
862	2288525	408.487232534681	76
862	2293991	409.897638002766	76
862	2298449	410.631255775015	76
862	2302377	411.4936101418	76
862	2323624	414.580450465984	76
862	2339022	417.250717629746	76
862	2350390	419.921002862827	76
862	2366373	422.321309843805	76
862	2395135	426.956761227754	76
862	2397685	427.359514673128	76
862	2407802	428.946064282742	76
862	2409689	429.052733862248	76
862	2409815	429.065534529376	76
862	2411449	429.43923238288	76
862	2424734	431.323527690501	76
862	2452249	435.810294976232	76
862	2464854	437.843759570728	76
862	2481955	440.735518150905	76
863	5283	30	76
863	19910	31.032406909874	76
863	36093	33.525632687351	76
863	37268	33.800213831873	76
863	60627	37.67858791053	76
863	63124	38.209704895496	76
863	69241	39.287361242075	76
863	79845	41.181573187056	76
863	142543	51.717291644432	76
863	152713	53.330521866219	76
863	182352	59.035517052049	76
863	204193	62.963823831027	76
863	204497	63.029471265905	76
863	240039	69.780347690656	76
863	253846	72.000591138352	76
863	296688	78.840233348688	76
863	333308	84.132981762785	76
863	350074	87.101206883542	76
863	357559	88.234382391025	76
863	396529	94.167450657706	76
863	473982	105.54534849466	76
863	479183	106.398100475789	76
863	484194	107.251960889126	76
863	501378	110.152817203602	76
863	504609	110.939249995342	76
863	512369	112.575558461704	76
863	517821	113.275162333394	76
863	519434	113.558324056962	76
863	523952	114.190336739527	76
863	526971	114.586402201138	76
863	535637	115.999894407324	76
863	553717	119.179276913799	76
863	564194	120.923137161197	76
863	569808	121.95202432033	76
863	600422	127.851612812671	76
863	602074	128.115711617518	76
863	607940	129.284987084198	76
863	608783	129.315864793736	76
863	609677	129.375274799449	76
863	635013	133.490648517612	76
863	636757	133.816963909162	76
863	651015	136.213734680931	76
863	662382	138.36687445332	76
863	663273	138.511705537508	76
863	681314	141.84036642672	76
863	683791	142.102457857565	76
863	707853	145.943692753362	76
863	713585	146.992821473496	76
863	720426	148.229413311029	76
863	739783	151.169903874257	76
863	752970	153.256012249421	76
863	771406	156.103092043153	76
863	772619	156.276158309701	76
863	775164	156.763948447084	76
863	785779	158.129444225306	76
863	819569	163.682208610978	76
863	821606	164.158856109701	76
863	836806	166.808067593802	76
863	882095	174.493201200573	76
863	884333	175.140210815655	76
863	904153	178.602109554178	76
863	908233	179.173112095349	76
863	910866	179.909676619959	76
863	926488	182.554480741126	76
863	954074	186.974895354859	76
863	979508	191.281167336793	76
863	986210	192.418290054982	76
863	1016830	196.806697112084	76
863	1020542	197.269289654514	76
863	1040655	200.95132654899	76
863	1063556	204.814075627946	76
863	1069939	205.89397714381	76
863	1079612	207.387449351347	76
863	1090206	208.903647476109	76
863	1124603	214.298544445916	76
863	1147108	218.135026777736	76
863	2482830	440.832457978999	76
863	2489750	441.92735898761	76
863	2493953	442.498301458276	76
863	2494370	442.522664658	76
863	2499576	443.177862162293	76
863	2508820	444.49603703976	76
863	2519150	446.408882508178	76
863	2526565	447.76486451714	76
863	2561811	454.162822769741	76
863	2574670	456.349323659968	76
863	2601449	460.948333204434	76
863	2652112	469.886132082657	76
863	2683304	474.563755759871	76
863	2683563	474.583620485063	76
863	2694274	477.057839087781	76
863	2717691	481.138285406754	76
863	2725933	482.51253819283	76
863	2731877	483.403621556054	76
863	2765244	489.011931057906	76
864	1196510	226.947579172665	-nan
864	1197082	226.968732629877	1
864	1201773	227.718261445076	0.5
864	1201970	227.738134902288	1
864	1205376	228.241265720231	0.66666666666667
864	1205919	228.270163844571	1
864	1210856	228.954556631779	0.75
864	1211190	228.976030088991	1
864	1216994	229.839631966014	0.8
864	1217192	229.860785423226	1
864	1222458	230.985801889391	0.83333333333333
864	1222881	231.006955346603	1
864	1259523	237.024129617012	0.85714285714286
864	1259975	237.051891074224	1
864	1267339	238.14387248075	0.875
864	1267537	238.164065937962	1
864	1268719	238.319149197082	0.88888888888889
864	1269129	238.351647321422	1
864	1292018	241.864502676815	0.9
864	1292431	241.893416134027	1
864	1307241	244.141928401087	0.90909090909091
864	1307466	244.165961858299	1
864	1328999	247.81231767114	0.91666666666667
864	1329372	247.842495128352	1
864	1335748	249.010383543065	0.92307692307692
864	1335946	249.034097000277	1
864	1347630	251.276630729547	0.92857142857143
864	1348025	251.304264186759	1
864	1363115	253.796090288871	0.93333333333333
864	1363557	253.823723746083	1
864	1383631	257.193326386776	0.9375
864	1383913	257.215759843988	1
864	1394707	259.417849747876	0.94117647058824
864	1395258	259.446619205088	1
864	1395766	259.601649835463	0.94444444444444
864	1395964	259.623763292675	1
864	1403479	260.896018734745	0.94736842105263
864	1403870	260.918132191957	1
864	1421849	263.754359706333	0.95
864	1422246	263.776793163545	1
864	1431440	265.171340909747	0.95238095238095
864	1431686	265.193454366959	1
864	1444352	267.84939562318	0.95454545454545
864	1444549	267.871189080392	1
864	1452606	269.118669613051	0.95652173913043
864	1453304	269.157231737391	1
864	1481162	273.20319787508	0.95833333333333
864	1481360	273.225631332292	1
864	1491937	275.413535647811	0.96
864	1492310	275.444769105023	1
864	1498074	276.774218950002	0.96153846153846
864	1498503	276.801580407214	1
864	1503013	277.542481114676	0.96296296296296
864	1503213	277.563634571888	1
864	1530114	281.779772792883	0.96428571428571
864	1530367	281.801246250095	1
864	1561963	286.590600453589	0.96551724137931
864	1562212	286.610793910801	1
864	1562620	286.630132722545	0.96666666666667
864	1563235	286.657766179757	1
864	1587560	290.704098126824	0.96774193548387
864	1587758	290.725571584036	1
864	1595724	291.969574022789	0.96875
864	1595922	291.991367480001	1
864	1597413	292.223729765524	0.96969696969697
864	1597870	292.249491222736	1
864	1598917	292.450069734256	0.97058823529412
864	1599115	292.472823191468	1
864	1602288	292.874389039266	0.97142857142857
864	1602521	292.898742496478	1
864	1657799	303.4201178797	0.97222222222222
864	1658050	303.441271336912	1
864	1697885	310.131355283577	0.97297297297297
864	1698219	310.160908740789	1
864	1709815	312.302681215792	0.97368421052632
864	1710056	312.326714673004	1
864	1732775	315.514546989205	0.97435897435897
864	1733017	315.536660446417	1
864	1733976	315.711644154271	0.975
864	1734234	315.733117611483	1
864	1736270	316.247489985398	0.97560975609756
864	1736468	316.27024344261	1
864	1743835	317.806687613279	0.97619047619048
864	1744359	317.833361070491	1
864	1765632	321.393194149611	0.97674418604651
864	1765918	321.413067606823	1
864	1775981	323.459429165472	0.97727272727273
864	1776398	323.488022622684	1
864	1776483	323.511735016517	0.97777777777778
864	1776739	323.535448473729	1
864	1803751	328.189807968836	0.97826086956522
864	1803952	328.213201426048	1
864	1818383	331.191864341997	0.97872340425532
864	1818927	331.217497799209	1
864	1829830	332.576086674183	0.97916666666667
864	1830179	332.598520131395	1
864	1835924	333.633433602323	0.97959183673469
864	1836122	333.656507059535	1
864	1844638	334.895139836222	0.98
864	1845081	334.921493293434	1
864	1848910	335.620147567489	0.98039215686275
864	1849110	335.642581024701	1
864	1850473	335.991547823748	0.98076923076923
864	1850672	336.01430128096	1
864	1935583	350.342717435177	0.9811320754717
864	1935781	350.363870892389	1
864	1941087	351.223861219896	0.98148148148148
864	1941391	351.245654677108	1
864	1955188	353.252487288644	0.98181818181818
864	1955506	353.273640745856	1
864	1959233	354.00304743043	0.98214285714286
864	1959692	354.03258555477	1
864	1983336	358.045052933257	0.98245614035088
864	1983576	358.068446390469	1
864	2001093	361.184453881336	0.98275862068966
864	2001504	361.206567338548	1
864	2002985	361.391615181905	0.98305084745763
864	2003183	361.414688639117	1
864	2037869	367.447417087223	0.98333333333333
864	2047233	368.712531122015	0.9672131147541
864	2047745	368.742532579227	0.98360655737705
864	2059208	370.746158462354	0.96774193548387
864	2059535	370.771471919566	0.98387096774194
864	2064889	371.808485184365	0.96825396825397
864	2065091	371.830278641577	0.98412698412698
864	2069144	372.300024294183	0.96875
864	2069582	372.322457751395	0.984375
864	2075410	373.215817513391	0.96923076923077
864	2076034	373.243450970603	0.98461538461538
864	2086552	374.888084705874	0.96969696969697
864	2086776	374.910518163086	0.98484848484848
864	2087507	375.006580449865	0.97014925373134
864	2087853	375.034533907077	0.98507462686567
864	2097473	376.698222672719	0.97058823529412
864	2097701	376.720976129931	0.98529411764706
864	2108529	378.982704948424	0.97101449275362
864	2108858	379.002898405636	0.98550724637681
864	2147785	385.114457207056	0.97142857142857
864	2147983	385.136250664268	0.98571428571429
864	2148768	385.234473951032	0.97183098591549
864	2149147	385.264667408244	0.98591549295775
864	2161621	387.276307809292	0.97222222222222
864	2161850	387.296501266504	0.98611111111111
864	2166827	388.429075915005	0.97260273972603
864	2167596	388.463829372217	0.98630136986301
864	2187808	391.954060649815	0.97297297297297
864	2188359	391.986942107027	0.98648648648649
864	2206345	394.638816825288	0.97333333333333
864	2206543	394.6602902825	0.98666666666667
864	2223671	397.115696287936	0.97368421052632
864	2224392	397.147025745148	0.98684210526316
864	2247871	401.50417944186	0.97402597402597
864	2248189	401.524052899072	0.98701298701299
864	2248365	401.564224624914	0.97435897435897
864	2248564	401.584098082126	0.98717948717949
864	2248664	401.655931213688	0.9746835443038
864	2248908	401.6780446709	0.9873417721519
864	2252358	402.2901325142	0.975
864	2252981	402.334645971412	0.9875
864	2268040	405.088404307842	0.97530864197531
864	2268237	405.110197765054	0.98765432098765
864	2278185	407.000043857183	0.97560975609756
864	2278382	407.021837314395	0.98780487804878
864	2288328	408.465759077469	0.97590361445783
864	2288525	408.487232534681	0.98795180722892
864	2293620	409.875204545554	0.97619047619048
864	2293991	409.897638002766	0.98809523809524
864	2298138	410.607862317803	0.97647058823529
864	2298449	410.631255775015	0.98823529411765
864	2302026	411.470216684588	0.97674418604651
864	2302377	411.4936101418	0.98837209302326
864	2323127	414.551409008772	0.97701149425287
864	2323624	414.580450465984	0.98850574712644
864	2338760	417.228284172534	0.97727272727273
864	2339022	417.250717629746	0.98863636363636
864	2349738	419.890809405615	0.97752808988764
864	2350390	419.921002862827	0.98876404494382
864	2366068	422.301116386593	0.97777777777778
864	2366373	422.321309843805	0.98888888888889
864	2394816	426.929079770542	0.97802197802198
864	2395135	426.956761227754	0.98901098901099
864	2397428	427.337401215916	0.97826086956522
864	2397685	427.359514673128	0.98913043478261
864	2406917	428.90908682553	0.97849462365591
864	2407802	428.946064282742	0.98924731182796
864	2408772	428.999674577262	0.97872340425532
864	2408898	429.004907737908	0.96842105263158
864	2409689	429.052733862248	0.97894736842105
864	2409815	429.065534529376	0.98947368421053
864	2411076	429.408318925668	0.97916666666667
864	2411449	429.43923238288	0.98958333333333
864	2424301	431.301094233289	0.97938144329897
864	2424734	431.323527690501	0.98969072164948
864	2452051	435.78754151902	0.97959183673469
864	2452249	435.810294976232	0.98979591836735
864	2464267	437.821326113516	0.97979797979798
864	2464854	437.843759570728	0.98989898989899
864	2481509	440.698620693693	0.98
864	2481955	440.735518150905	0.99
