version 2
run CSMA-0-20160823-13:40:10-14494
attr beaconInterval 10s
attr configname CSMA
attr datetime 20160823-13:40:10
attr experiment CSMA
attr inifile simulations/omnetpp.ini
attr iterationvars "$packetLength=76B, $sendInt=2.1, $beaconInterval=10s, $0=10s/2, $1=3 * 10s"
attr iterationvars2 "$packetLength=76B, $sendInt=2.1, $beaconInterval=10s, $0=10s/2, $1=3 * 10s, $repetition=0"
attr measurement "$packetLength=76B, $sendInt=2.1, $beaconInterval=10s, $0=10s/2, $1=3 * 10s"
attr network multi_gateway.Net802154MultiGateway
attr packetLength 76B
attr processid 14494
attr repetition 0
attr replication #0
attr resultdir ../results
attr runnumber 0
attr seedset 0
attr sendInt 2.1
param **.configurator.addStaticRoutes false
param **.dumpRoutes false
param **.dumpTopology false
param **.host[*].**.gpsr.beaconInterval "${beaconInterval = 10s}"
param **.host[*].**.gpsr.maxJitter ${$beaconInterval/2}
param **.host[*].**.gpsr.neighborValidityInterval "${3 * $beaconInterval}"
param **.host[*].**.gpsr.positionByteLength "2 B"
param **.host[*].**.gpsr.routingStrategy "\"StraightestPath\""
param **.host[*].**.trafficgen.continueSendingDummyPackets true
param **.host[*].**.trafficgen.coolDownDuration 15s
param **.host[*].**.trafficgen.destAddresses "\"host[0].wrappedHost(modulepath)\""
param **.host[*].**.trafficgen.packetLength "${packetLength = 76B}"
param **.host[*].**.trafficgen.sendInterval "exponential(${sendInt=0.1..2.5 step 0.2}s)"
param **.host[*].**.trafficgen.warmUpDuration 160s
param **.host[*].**.wlan[*].mac.queueLength 30
param **.host[*].**.wlan[*].macType "\"Ieee802154NarrowbandMac\""
param **.host[*].**.wlan[*].radio.receiver.minInterferencePower "-100 dBm"
param **.host[*].hostType "\"SimpleHost\""
param **.host[*].mobilityType "\"StaticConcentricWrappingMobility\""
param **.host[0].**.trafficgen.numPackets 0
param **.host[1..].**.trafficgen.numPackets 100
param **.numHosts 62
param **.radioMedium.rangeFilter "\"interferenceRange\""
param **.routingTable.addressType "\"modulepath\""
param **.routingTableType "\"GenericRoutingTable\""

vector 9  Net802154MultiGateway.host[0].wrappedHost.trafficgen  sentDummyPk:vector(packetBytes)  ETV
attr interpolationmode  none
attr source  sentDummyPk
attr title  "dummy packets sent, vector(packetBytes)"
vector 23  Net802154MultiGateway.host[1].wrappedHost.trafficgen  sentDummyPk:vector(packetBytes)  ETV
attr interpolationmode  none
attr source  sentDummyPk
attr title  "dummy packets sent, vector(packetBytes)"
vector 37  Net802154MultiGateway.host[2].wrappedHost.trafficgen  sentDummyPk:vector(packetBytes)  ETV
attr interpolationmode  none
attr source  sentDummyPk
attr title  "dummy packets sent, vector(packetBytes)"
vector 51  Net802154MultiGateway.host[3].wrappedHost.trafficgen  sentDummyPk:vector(packetBytes)  ETV
attr interpolationmode  none
attr source  sentDummyPk
attr title  "dummy packets sent, vector(packetBytes)"
vector 65  Net802154MultiGateway.host[4].wrappedHost.trafficgen  sentDummyPk:vector(packetBytes)  ETV
attr interpolationmode  none
attr source  sentDummyPk
attr title  "dummy packets sent, vector(packetBytes)"
vector 79  Net802154MultiGateway.host[5].wrappedHost.trafficgen  sentDummyPk:vector(packetBytes)  ETV
attr interpolationmode  none
attr source  sentDummyPk
attr title  "dummy packets sent, vector(packetBytes)"
vector 93  Net802154MultiGateway.host[6].wrappedHost.trafficgen  sentDummyPk:vector(packetBytes)  ETV
attr interpolationmode  none
attr source  sentDummyPk
attr title  "dummy packets sent, vector(packetBytes)"
vector 107  Net802154MultiGateway.host[7].wrappedHost.trafficgen  sentDummyPk:vector(packetBytes)  ETV
attr interpolationmode  none
attr source  sentDummyPk
attr title  "dummy packets sent, vector(packetBytes)"
vector 121  Net802154MultiGateway.host[8].wrappedHost.trafficgen  sentDummyPk:vector(packetBytes)  ETV
attr interpolationmode  none
attr source  sentDummyPk
attr title  "dummy packets sent, vector(packetBytes)"
vector 135  Net802154MultiGateway.host[9].wrappedHost.trafficgen  sentDummyPk:vector(packetBytes)  ETV
attr interpolationmode  none
attr source  sentDummyPk
attr title  "dummy packets sent, vector(packetBytes)"
vector 149  Net802154MultiGateway.host[10].wrappedHost.trafficgen  sentDummyPk:vector(packetBytes)  ETV
attr interpolationmode  none
attr source  sentDummyPk
attr title  "dummy packets sent, vector(packetBytes)"
vector 163  Net802154MultiGateway.host[11].wrappedHost.trafficgen  sentDummyPk:vector(packetBytes)  ETV
attr interpolationmode  none
attr source  sentDummyPk
attr title  "dummy packets sent, vector(packetBytes)"
vector 177  Net802154MultiGateway.host[12].wrappedHost.trafficgen  sentDummyPk:vector(packetBytes)  ETV
attr interpolationmode  none
attr source  sentDummyPk
attr title  "dummy packets sent, vector(packetBytes)"
vector 191  Net802154MultiGateway.host[13].wrappedHost.trafficgen  sentDummyPk:vector(packetBytes)  ETV
attr interpolationmode  none
attr source  sentDummyPk
attr title  "dummy packets sent, vector(packetBytes)"
vector 205  Net802154MultiGateway.host[14].wrappedHost.trafficgen  sentDummyPk:vector(packetBytes)  ETV
attr interpolationmode  none
attr source  sentDummyPk
attr title  "dummy packets sent, vector(packetBytes)"
vector 219  Net802154MultiGateway.host[15].wrappedHost.trafficgen  sentDummyPk:vector(packetBytes)  ETV
attr interpolationmode  none
attr source  sentDummyPk
attr title  "dummy packets sent, vector(packetBytes)"
vector 233  Net802154MultiGateway.host[16].wrappedHost.trafficgen  sentDummyPk:vector(packetBytes)  ETV
attr interpolationmode  none
attr source  sentDummyPk
attr title  "dummy packets sent, vector(packetBytes)"
vector 247  Net802154MultiGateway.host[17].wrappedHost.trafficgen  sentDummyPk:vector(packetBytes)  ETV
attr interpolationmode  none
attr source  sentDummyPk
attr title  "dummy packets sent, vector(packetBytes)"
vector 261  Net802154MultiGateway.host[18].wrappedHost.trafficgen  sentDummyPk:vector(packetBytes)  ETV
attr interpolationmode  none
attr source  sentDummyPk
attr title  "dummy packets sent, vector(packetBytes)"
vector 275  Net802154MultiGateway.host[19].wrappedHost.trafficgen  sentDummyPk:vector(packetBytes)  ETV
attr interpolationmode  none
attr source  sentDummyPk
attr title  "dummy packets sent, vector(packetBytes)"
vector 289  Net802154MultiGateway.host[20].wrappedHost.trafficgen  sentDummyPk:vector(packetBytes)  ETV
attr interpolationmode  none
attr source  sentDummyPk
attr title  "dummy packets sent, vector(packetBytes)"
vector 303  Net802154MultiGateway.host[21].wrappedHost.trafficgen  sentDummyPk:vector(packetBytes)  ETV
attr interpolationmode  none
attr source  sentDummyPk
attr title  "dummy packets sent, vector(packetBytes)"
vector 317  Net802154MultiGateway.host[22].wrappedHost.trafficgen  sentDummyPk:vector(packetBytes)  ETV
attr interpolationmode  none
attr source  sentDummyPk
attr title  "dummy packets sent, vector(packetBytes)"
vector 331  Net802154MultiGateway.host[23].wrappedHost.trafficgen  sentDummyPk:vector(packetBytes)  ETV
attr interpolationmode  none
attr source  sentDummyPk
attr title  "dummy packets sent, vector(packetBytes)"
vector 345  Net802154MultiGateway.host[24].wrappedHost.trafficgen  sentDummyPk:vector(packetBytes)  ETV
attr interpolationmode  none
attr source  sentDummyPk
attr title  "dummy packets sent, vector(packetBytes)"
vector 359  Net802154MultiGateway.host[25].wrappedHost.trafficgen  sentDummyPk:vector(packetBytes)  ETV
attr interpolationmode  none
attr source  sentDummyPk
attr title  "dummy packets sent, vector(packetBytes)"
vector 373  Net802154MultiGateway.host[26].wrappedHost.trafficgen  sentDummyPk:vector(packetBytes)  ETV
attr interpolationmode  none
attr source  sentDummyPk
attr title  "dummy packets sent, vector(packetBytes)"
vector 387  Net802154MultiGateway.host[27].wrappedHost.trafficgen  sentDummyPk:vector(packetBytes)  ETV
attr interpolationmode  none
attr source  sentDummyPk
attr title  "dummy packets sent, vector(packetBytes)"
vector 401  Net802154MultiGateway.host[28].wrappedHost.trafficgen  sentDummyPk:vector(packetBytes)  ETV
attr interpolationmode  none
attr source  sentDummyPk
attr title  "dummy packets sent, vector(packetBytes)"
vector 415  Net802154MultiGateway.host[29].wrappedHost.trafficgen  sentDummyPk:vector(packetBytes)  ETV
attr interpolationmode  none
attr source  sentDummyPk
attr title  "dummy packets sent, vector(packetBytes)"
vector 429  Net802154MultiGateway.host[30].wrappedHost.trafficgen  sentDummyPk:vector(packetBytes)  ETV
attr interpolationmode  none
attr source  sentDummyPk
attr title  "dummy packets sent, vector(packetBytes)"
vector 443  Net802154MultiGateway.host[31].wrappedHost.trafficgen  sentDummyPk:vector(packetBytes)  ETV
attr interpolationmode  none
attr source  sentDummyPk
attr title  "dummy packets sent, vector(packetBytes)"
vector 457  Net802154MultiGateway.host[32].wrappedHost.trafficgen  sentDummyPk:vector(packetBytes)  ETV
attr interpolationmode  none
attr source  sentDummyPk
attr title  "dummy packets sent, vector(packetBytes)"
vector 471  Net802154MultiGateway.host[33].wrappedHost.trafficgen  sentDummyPk:vector(packetBytes)  ETV
attr interpolationmode  none
attr source  sentDummyPk
attr title  "dummy packets sent, vector(packetBytes)"
vector 485  Net802154MultiGateway.host[34].wrappedHost.trafficgen  sentDummyPk:vector(packetBytes)  ETV
attr interpolationmode  none
attr source  sentDummyPk
attr title  "dummy packets sent, vector(packetBytes)"
vector 499  Net802154MultiGateway.host[35].wrappedHost.trafficgen  sentDummyPk:vector(packetBytes)  ETV
attr interpolationmode  none
attr source  sentDummyPk
attr title  "dummy packets sent, vector(packetBytes)"
vector 513  Net802154MultiGateway.host[36].wrappedHost.trafficgen  sentDummyPk:vector(packetBytes)  ETV
attr interpolationmode  none
attr source  sentDummyPk
attr title  "dummy packets sent, vector(packetBytes)"
vector 527  Net802154MultiGateway.host[37].wrappedHost.trafficgen  sentDummyPk:vector(packetBytes)  ETV
attr interpolationmode  none
attr source  sentDummyPk
attr title  "dummy packets sent, vector(packetBytes)"
vector 541  Net802154MultiGateway.host[38].wrappedHost.trafficgen  sentDummyPk:vector(packetBytes)  ETV
attr interpolationmode  none
attr source  sentDummyPk
attr title  "dummy packets sent, vector(packetBytes)"
vector 555  Net802154MultiGateway.host[39].wrappedHost.trafficgen  sentDummyPk:vector(packetBytes)  ETV
attr interpolationmode  none
attr source  sentDummyPk
attr title  "dummy packets sent, vector(packetBytes)"
vector 569  Net802154MultiGateway.host[40].wrappedHost.trafficgen  sentDummyPk:vector(packetBytes)  ETV
attr interpolationmode  none
attr source  sentDummyPk
attr title  "dummy packets sent, vector(packetBytes)"
vector 583  Net802154MultiGateway.host[41].wrappedHost.trafficgen  sentDummyPk:vector(packetBytes)  ETV
attr interpolationmode  none
attr source  sentDummyPk
attr title  "dummy packets sent, vector(packetBytes)"
vector 597  Net802154MultiGateway.host[42].wrappedHost.trafficgen  sentDummyPk:vector(packetBytes)  ETV
attr interpolationmode  none
attr source  sentDummyPk
attr title  "dummy packets sent, vector(packetBytes)"
vector 611  Net802154MultiGateway.host[43].wrappedHost.trafficgen  sentDummyPk:vector(packetBytes)  ETV
attr interpolationmode  none
attr source  sentDummyPk
attr title  "dummy packets sent, vector(packetBytes)"
vector 625  Net802154MultiGateway.host[44].wrappedHost.trafficgen  sentDummyPk:vector(packetBytes)  ETV
attr interpolationmode  none
attr source  sentDummyPk
attr title  "dummy packets sent, vector(packetBytes)"
vector 639  Net802154MultiGateway.host[45].wrappedHost.trafficgen  sentDummyPk:vector(packetBytes)  ETV
attr interpolationmode  none
attr source  sentDummyPk
attr title  "dummy packets sent, vector(packetBytes)"
vector 653  Net802154MultiGateway.host[46].wrappedHost.trafficgen  sentDummyPk:vector(packetBytes)  ETV
attr interpolationmode  none
attr source  sentDummyPk
attr title  "dummy packets sent, vector(packetBytes)"
vector 667  Net802154MultiGateway.host[47].wrappedHost.trafficgen  sentDummyPk:vector(packetBytes)  ETV
attr interpolationmode  none
attr source  sentDummyPk
attr title  "dummy packets sent, vector(packetBytes)"
vector 681  Net802154MultiGateway.host[48].wrappedHost.trafficgen  sentDummyPk:vector(packetBytes)  ETV
attr interpolationmode  none
attr source  sentDummyPk
attr title  "dummy packets sent, vector(packetBytes)"
vector 695  Net802154MultiGateway.host[49].wrappedHost.trafficgen  sentDummyPk:vector(packetBytes)  ETV
attr interpolationmode  none
attr source  sentDummyPk
attr title  "dummy packets sent, vector(packetBytes)"
vector 709  Net802154MultiGateway.host[50].wrappedHost.trafficgen  sentDummyPk:vector(packetBytes)  ETV
attr interpolationmode  none
attr source  sentDummyPk
attr title  "dummy packets sent, vector(packetBytes)"
vector 723  Net802154MultiGateway.host[51].wrappedHost.trafficgen  sentDummyPk:vector(packetBytes)  ETV
attr interpolationmode  none
attr source  sentDummyPk
attr title  "dummy packets sent, vector(packetBytes)"
vector 737  Net802154MultiGateway.host[52].wrappedHost.trafficgen  sentDummyPk:vector(packetBytes)  ETV
attr interpolationmode  none
attr source  sentDummyPk
attr title  "dummy packets sent, vector(packetBytes)"
vector 751  Net802154MultiGateway.host[53].wrappedHost.trafficgen  sentDummyPk:vector(packetBytes)  ETV
attr interpolationmode  none
attr source  sentDummyPk
attr title  "dummy packets sent, vector(packetBytes)"
vector 765  Net802154MultiGateway.host[54].wrappedHost.trafficgen  sentDummyPk:vector(packetBytes)  ETV
attr interpolationmode  none
attr source  sentDummyPk
attr title  "dummy packets sent, vector(packetBytes)"
vector 779  Net802154MultiGateway.host[55].wrappedHost.trafficgen  sentDummyPk:vector(packetBytes)  ETV
attr interpolationmode  none
attr source  sentDummyPk
attr title  "dummy packets sent, vector(packetBytes)"
vector 793  Net802154MultiGateway.host[56].wrappedHost.trafficgen  sentDummyPk:vector(packetBytes)  ETV
attr interpolationmode  none
attr source  sentDummyPk
attr title  "dummy packets sent, vector(packetBytes)"
vector 807  Net802154MultiGateway.host[57].wrappedHost.trafficgen  sentDummyPk:vector(packetBytes)  ETV
attr interpolationmode  none
attr source  sentDummyPk
attr title  "dummy packets sent, vector(packetBytes)"
vector 821  Net802154MultiGateway.host[58].wrappedHost.trafficgen  sentDummyPk:vector(packetBytes)  ETV
attr interpolationmode  none
attr source  sentDummyPk
attr title  "dummy packets sent, vector(packetBytes)"
vector 835  Net802154MultiGateway.host[59].wrappedHost.trafficgen  sentDummyPk:vector(packetBytes)  ETV
attr interpolationmode  none
attr source  sentDummyPk
attr title  "dummy packets sent, vector(packetBytes)"
vector 849  Net802154MultiGateway.host[60].wrappedHost.trafficgen  sentDummyPk:vector(packetBytes)  ETV
attr interpolationmode  none
attr source  sentDummyPk
attr title  "dummy packets sent, vector(packetBytes)"
vector 863  Net802154MultiGateway.host[61].wrappedHost.trafficgen  sentDummyPk:vector(packetBytes)  ETV
attr interpolationmode  none
attr source  sentDummyPk
attr title  "dummy packets sent, vector(packetBytes)"
vector 412  Net802154MultiGateway.host[29].wrappedHost.trafficgen  sentPk:vector(packetBytes)  ETV
attr interpolationmode  none
attr source  sentPk
attr title  "packets sent, vector(packetBytes)"
vector 416  Net802154MultiGateway.host[29].wrappedHost.trafficgen  PRR:vector  ETV
attr interpolationmode  none
attr source  count(sinkRcvdPk)/count(sentPk)
attr title  "PRR, vector"
vector 414  Net802154MultiGateway.host[29].wrappedHost.trafficgen  sinkRcvdPk:vector(packetBytes)  ETV
attr interpolationmode  none
attr source  sinkRcvdPk
attr title  "own packets received by sink, vector(packetBytes)"
vector 5  Net802154MultiGateway.host[0].wrappedHost.trafficgen  rcvdPk:vector(packetBytes)  ETV
attr interpolationmode  none
attr source  rcvdPk
attr title  "packets received, vector(packetBytes)"
vector 7  Net802154MultiGateway.host[0].wrappedHost.trafficgen  endToEndDelay:vector  ETV
attr interpolationmode  none
attr source  messageAge(rcvdPk)
attr title  "end-to-end delay, vector"
attr unit  s
vector 846  Net802154MultiGateway.host[60].wrappedHost.trafficgen  sentPk:vector(packetBytes)  ETV
attr interpolationmode  none
attr source  sentPk
attr title  "packets sent, vector(packetBytes)"
vector 850  Net802154MultiGateway.host[60].wrappedHost.trafficgen  PRR:vector  ETV
attr interpolationmode  none
attr source  count(sinkRcvdPk)/count(sentPk)
attr title  "PRR, vector"
vector 566  Net802154MultiGateway.host[40].wrappedHost.trafficgen  sentPk:vector(packetBytes)  ETV
attr interpolationmode  none
attr source  sentPk
attr title  "packets sent, vector(packetBytes)"
vector 570  Net802154MultiGateway.host[40].wrappedHost.trafficgen  PRR:vector  ETV
attr interpolationmode  none
attr source  count(sinkRcvdPk)/count(sentPk)
attr title  "PRR, vector"
vector 62  Net802154MultiGateway.host[4].wrappedHost.trafficgen  sentPk:vector(packetBytes)  ETV
attr interpolationmode  none
attr source  sentPk
attr title  "packets sent, vector(packetBytes)"
vector 66  Net802154MultiGateway.host[4].wrappedHost.trafficgen  PRR:vector  ETV
attr interpolationmode  none
attr source  count(sinkRcvdPk)/count(sentPk)
attr title  "PRR, vector"
vector 64  Net802154MultiGateway.host[4].wrappedHost.trafficgen  sinkRcvdPk:vector(packetBytes)  ETV
attr interpolationmode  none
attr source  sinkRcvdPk
attr title  "own packets received by sink, vector(packetBytes)"
vector 568  Net802154MultiGateway.host[40].wrappedHost.trafficgen  sinkRcvdPk:vector(packetBytes)  ETV
attr interpolationmode  none
attr source  sinkRcvdPk
attr title  "own packets received by sink, vector(packetBytes)"
vector 706  Net802154MultiGateway.host[50].wrappedHost.trafficgen  sentPk:vector(packetBytes)  ETV
attr interpolationmode  none
attr source  sentPk
attr title  "packets sent, vector(packetBytes)"
vector 710  Net802154MultiGateway.host[50].wrappedHost.trafficgen  PRR:vector  ETV
attr interpolationmode  none
attr source  count(sinkRcvdPk)/count(sentPk)
attr title  "PRR, vector"
vector 848  Net802154MultiGateway.host[60].wrappedHost.trafficgen  sinkRcvdPk:vector(packetBytes)  ETV
attr interpolationmode  none
attr source  sinkRcvdPk
attr title  "own packets received by sink, vector(packetBytes)"
vector 804  Net802154MultiGateway.host[57].wrappedHost.trafficgen  sentPk:vector(packetBytes)  ETV
attr interpolationmode  none
attr source  sentPk
attr title  "packets sent, vector(packetBytes)"
vector 808  Net802154MultiGateway.host[57].wrappedHost.trafficgen  PRR:vector  ETV
attr interpolationmode  none
attr source  count(sinkRcvdPk)/count(sentPk)
attr title  "PRR, vector"
vector 708  Net802154MultiGateway.host[50].wrappedHost.trafficgen  sinkRcvdPk:vector(packetBytes)  ETV
attr interpolationmode  none
attr source  sinkRcvdPk
attr title  "own packets received by sink, vector(packetBytes)"
vector 806  Net802154MultiGateway.host[57].wrappedHost.trafficgen  sinkRcvdPk:vector(packetBytes)  ETV
attr interpolationmode  none
attr source  sinkRcvdPk
attr title  "own packets received by sink, vector(packetBytes)"
vector 440  Net802154MultiGateway.host[31].wrappedHost.trafficgen  sentPk:vector(packetBytes)  ETV
attr interpolationmode  none
attr source  sentPk
attr title  "packets sent, vector(packetBytes)"
vector 444  Net802154MultiGateway.host[31].wrappedHost.trafficgen  PRR:vector  ETV
attr interpolationmode  none
attr source  count(sinkRcvdPk)/count(sentPk)
attr title  "PRR, vector"
vector 370  Net802154MultiGateway.host[26].wrappedHost.trafficgen  sentPk:vector(packetBytes)  ETV
attr interpolationmode  none
attr source  sentPk
attr title  "packets sent, vector(packetBytes)"
vector 374  Net802154MultiGateway.host[26].wrappedHost.trafficgen  PRR:vector  ETV
attr interpolationmode  none
attr source  count(sinkRcvdPk)/count(sentPk)
attr title  "PRR, vector"
vector 442  Net802154MultiGateway.host[31].wrappedHost.trafficgen  sinkRcvdPk:vector(packetBytes)  ETV
attr interpolationmode  none
attr source  sinkRcvdPk
attr title  "own packets received by sink, vector(packetBytes)"
vector 372  Net802154MultiGateway.host[26].wrappedHost.trafficgen  sinkRcvdPk:vector(packetBytes)  ETV
attr interpolationmode  none
attr source  sinkRcvdPk
attr title  "own packets received by sink, vector(packetBytes)"
vector 818  Net802154MultiGateway.host[58].wrappedHost.trafficgen  sentPk:vector(packetBytes)  ETV
attr interpolationmode  none
attr source  sentPk
attr title  "packets sent, vector(packetBytes)"
vector 822  Net802154MultiGateway.host[58].wrappedHost.trafficgen  PRR:vector  ETV
attr interpolationmode  none
attr source  count(sinkRcvdPk)/count(sentPk)
attr title  "PRR, vector"
vector 820  Net802154MultiGateway.host[58].wrappedHost.trafficgen  sinkRcvdPk:vector(packetBytes)  ETV
attr interpolationmode  none
attr source  sinkRcvdPk
attr title  "own packets received by sink, vector(packetBytes)"
vector 790  Net802154MultiGateway.host[56].wrappedHost.trafficgen  sentPk:vector(packetBytes)  ETV
attr interpolationmode  none
attr source  sentPk
attr title  "packets sent, vector(packetBytes)"
vector 794  Net802154MultiGateway.host[56].wrappedHost.trafficgen  PRR:vector  ETV
attr interpolationmode  none
attr source  count(sinkRcvdPk)/count(sentPk)
attr title  "PRR, vector"
vector 160  Net802154MultiGateway.host[11].wrappedHost.trafficgen  sentPk:vector(packetBytes)  ETV
attr interpolationmode  none
attr source  sentPk
attr title  "packets sent, vector(packetBytes)"
vector 164  Net802154MultiGateway.host[11].wrappedHost.trafficgen  PRR:vector  ETV
attr interpolationmode  none
attr source  count(sinkRcvdPk)/count(sentPk)
attr title  "PRR, vector"
vector 792  Net802154MultiGateway.host[56].wrappedHost.trafficgen  sinkRcvdPk:vector(packetBytes)  ETV
attr interpolationmode  none
attr source  sinkRcvdPk
attr title  "own packets received by sink, vector(packetBytes)"
vector 162  Net802154MultiGateway.host[11].wrappedHost.trafficgen  sinkRcvdPk:vector(packetBytes)  ETV
attr interpolationmode  none
attr source  sinkRcvdPk
attr title  "own packets received by sink, vector(packetBytes)"
vector 678  Net802154MultiGateway.host[48].wrappedHost.trafficgen  sentPk:vector(packetBytes)  ETV
attr interpolationmode  none
attr source  sentPk
attr title  "packets sent, vector(packetBytes)"
vector 682  Net802154MultiGateway.host[48].wrappedHost.trafficgen  PRR:vector  ETV
attr interpolationmode  none
attr source  count(sinkRcvdPk)/count(sentPk)
attr title  "PRR, vector"
vector 680  Net802154MultiGateway.host[48].wrappedHost.trafficgen  sinkRcvdPk:vector(packetBytes)  ETV
attr interpolationmode  none
attr source  sinkRcvdPk
attr title  "own packets received by sink, vector(packetBytes)"
vector 230  Net802154MultiGateway.host[16].wrappedHost.trafficgen  sentPk:vector(packetBytes)  ETV
attr interpolationmode  none
attr source  sentPk
attr title  "packets sent, vector(packetBytes)"
vector 234  Net802154MultiGateway.host[16].wrappedHost.trafficgen  PRR:vector  ETV
attr interpolationmode  none
attr source  count(sinkRcvdPk)/count(sentPk)
attr title  "PRR, vector"
vector 232  Net802154MultiGateway.host[16].wrappedHost.trafficgen  sinkRcvdPk:vector(packetBytes)  ETV
attr interpolationmode  none
attr source  sinkRcvdPk
attr title  "own packets received by sink, vector(packetBytes)"
vector 594  Net802154MultiGateway.host[42].wrappedHost.trafficgen  sentPk:vector(packetBytes)  ETV
attr interpolationmode  none
attr source  sentPk
attr title  "packets sent, vector(packetBytes)"
vector 598  Net802154MultiGateway.host[42].wrappedHost.trafficgen  PRR:vector  ETV
attr interpolationmode  none
attr source  count(sinkRcvdPk)/count(sentPk)
attr title  "PRR, vector"
vector 596  Net802154MultiGateway.host[42].wrappedHost.trafficgen  sinkRcvdPk:vector(packetBytes)  ETV
attr interpolationmode  none
attr source  sinkRcvdPk
attr title  "own packets received by sink, vector(packetBytes)"
vector 300  Net802154MultiGateway.host[21].wrappedHost.trafficgen  sentPk:vector(packetBytes)  ETV
attr interpolationmode  none
attr source  sentPk
attr title  "packets sent, vector(packetBytes)"
vector 304  Net802154MultiGateway.host[21].wrappedHost.trafficgen  PRR:vector  ETV
attr interpolationmode  none
attr source  count(sinkRcvdPk)/count(sentPk)
attr title  "PRR, vector"
vector 468  Net802154MultiGateway.host[33].wrappedHost.trafficgen  sentPk:vector(packetBytes)  ETV
attr interpolationmode  none
attr source  sentPk
attr title  "packets sent, vector(packetBytes)"
vector 472  Net802154MultiGateway.host[33].wrappedHost.trafficgen  PRR:vector  ETV
attr interpolationmode  none
attr source  count(sinkRcvdPk)/count(sentPk)
attr title  "PRR, vector"
vector 302  Net802154MultiGateway.host[21].wrappedHost.trafficgen  sinkRcvdPk:vector(packetBytes)  ETV
attr interpolationmode  none
attr source  sinkRcvdPk
attr title  "own packets received by sink, vector(packetBytes)"
vector 748  Net802154MultiGateway.host[53].wrappedHost.trafficgen  sentPk:vector(packetBytes)  ETV
attr interpolationmode  none
attr source  sentPk
attr title  "packets sent, vector(packetBytes)"
vector 752  Net802154MultiGateway.host[53].wrappedHost.trafficgen  PRR:vector  ETV
attr interpolationmode  none
attr source  count(sinkRcvdPk)/count(sentPk)
attr title  "PRR, vector"
vector 470  Net802154MultiGateway.host[33].wrappedHost.trafficgen  sinkRcvdPk:vector(packetBytes)  ETV
attr interpolationmode  none
attr source  sinkRcvdPk
attr title  "own packets received by sink, vector(packetBytes)"
vector 146  Net802154MultiGateway.host[10].wrappedHost.trafficgen  sentPk:vector(packetBytes)  ETV
attr interpolationmode  none
attr source  sentPk
attr title  "packets sent, vector(packetBytes)"
vector 150  Net802154MultiGateway.host[10].wrappedHost.trafficgen  PRR:vector  ETV
attr interpolationmode  none
attr source  count(sinkRcvdPk)/count(sentPk)
attr title  "PRR, vector"
vector 148  Net802154MultiGateway.host[10].wrappedHost.trafficgen  sinkRcvdPk:vector(packetBytes)  ETV
attr interpolationmode  none
attr source  sinkRcvdPk
attr title  "own packets received by sink, vector(packetBytes)"
vector 398  Net802154MultiGateway.host[28].wrappedHost.trafficgen  sentPk:vector(packetBytes)  ETV
attr interpolationmode  none
attr source  sentPk
attr title  "packets sent, vector(packetBytes)"
vector 402  Net802154MultiGateway.host[28].wrappedHost.trafficgen  PRR:vector  ETV
attr interpolationmode  none
attr source  count(sinkRcvdPk)/count(sentPk)
attr title  "PRR, vector"
vector 750  Net802154MultiGateway.host[53].wrappedHost.trafficgen  sinkRcvdPk:vector(packetBytes)  ETV
attr interpolationmode  none
attr source  sinkRcvdPk
attr title  "own packets received by sink, vector(packetBytes)"
vector 400  Net802154MultiGateway.host[28].wrappedHost.trafficgen  sinkRcvdPk:vector(packetBytes)  ETV
attr interpolationmode  none
attr source  sinkRcvdPk
attr title  "own packets received by sink, vector(packetBytes)"
vector 832  Net802154MultiGateway.host[59].wrappedHost.trafficgen  sentPk:vector(packetBytes)  ETV
attr interpolationmode  none
attr source  sentPk
attr title  "packets sent, vector(packetBytes)"
vector 836  Net802154MultiGateway.host[59].wrappedHost.trafficgen  PRR:vector  ETV
attr interpolationmode  none
attr source  count(sinkRcvdPk)/count(sentPk)
attr title  "PRR, vector"
vector 834  Net802154MultiGateway.host[59].wrappedHost.trafficgen  sinkRcvdPk:vector(packetBytes)  ETV
attr interpolationmode  none
attr source  sinkRcvdPk
attr title  "own packets received by sink, vector(packetBytes)"
vector 76  Net802154MultiGateway.host[5].wrappedHost.trafficgen  sentPk:vector(packetBytes)  ETV
attr interpolationmode  none
attr source  sentPk
attr title  "packets sent, vector(packetBytes)"
vector 80  Net802154MultiGateway.host[5].wrappedHost.trafficgen  PRR:vector  ETV
attr interpolationmode  none
attr source  count(sinkRcvdPk)/count(sentPk)
attr title  "PRR, vector"
vector 78  Net802154MultiGateway.host[5].wrappedHost.trafficgen  sinkRcvdPk:vector(packetBytes)  ETV
attr interpolationmode  none
attr source  sinkRcvdPk
attr title  "own packets received by sink, vector(packetBytes)"
vector 90  Net802154MultiGateway.host[6].wrappedHost.trafficgen  sentPk:vector(packetBytes)  ETV
attr interpolationmode  none
attr source  sentPk
attr title  "packets sent, vector(packetBytes)"
vector 94  Net802154MultiGateway.host[6].wrappedHost.trafficgen  PRR:vector  ETV
attr interpolationmode  none
attr source  count(sinkRcvdPk)/count(sentPk)
attr title  "PRR, vector"
vector 92  Net802154MultiGateway.host[6].wrappedHost.trafficgen  sinkRcvdPk:vector(packetBytes)  ETV
attr interpolationmode  none
attr source  sinkRcvdPk
attr title  "own packets received by sink, vector(packetBytes)"
vector 664  Net802154MultiGateway.host[47].wrappedHost.trafficgen  sentPk:vector(packetBytes)  ETV
attr interpolationmode  none
attr source  sentPk
attr title  "packets sent, vector(packetBytes)"
vector 668  Net802154MultiGateway.host[47].wrappedHost.trafficgen  PRR:vector  ETV
attr interpolationmode  none
attr source  count(sinkRcvdPk)/count(sentPk)
attr title  "PRR, vector"
vector 666  Net802154MultiGateway.host[47].wrappedHost.trafficgen  sinkRcvdPk:vector(packetBytes)  ETV
attr interpolationmode  none
attr source  sinkRcvdPk
attr title  "own packets received by sink, vector(packetBytes)"
vector 174  Net802154MultiGateway.host[12].wrappedHost.trafficgen  sentPk:vector(packetBytes)  ETV
attr interpolationmode  none
attr source  sentPk
attr title  "packets sent, vector(packetBytes)"
vector 178  Net802154MultiGateway.host[12].wrappedHost.trafficgen  PRR:vector  ETV
attr interpolationmode  none
attr source  count(sinkRcvdPk)/count(sentPk)
attr title  "PRR, vector"
vector 176  Net802154MultiGateway.host[12].wrappedHost.trafficgen  sinkRcvdPk:vector(packetBytes)  ETV
attr interpolationmode  none
attr source  sinkRcvdPk
attr title  "own packets received by sink, vector(packetBytes)"
vector 272  Net802154MultiGateway.host[19].wrappedHost.trafficgen  sentPk:vector(packetBytes)  ETV
attr interpolationmode  none
attr source  sentPk
attr title  "packets sent, vector(packetBytes)"
vector 276  Net802154MultiGateway.host[19].wrappedHost.trafficgen  PRR:vector  ETV
attr interpolationmode  none
attr source  count(sinkRcvdPk)/count(sentPk)
attr title  "PRR, vector"
vector 274  Net802154MultiGateway.host[19].wrappedHost.trafficgen  sinkRcvdPk:vector(packetBytes)  ETV
attr interpolationmode  none
attr source  sinkRcvdPk
attr title  "own packets received by sink, vector(packetBytes)"
vector 496  Net802154MultiGateway.host[35].wrappedHost.trafficgen  sentPk:vector(packetBytes)  ETV
attr interpolationmode  none
attr source  sentPk
attr title  "packets sent, vector(packetBytes)"
vector 500  Net802154MultiGateway.host[35].wrappedHost.trafficgen  PRR:vector  ETV
attr interpolationmode  none
attr source  count(sinkRcvdPk)/count(sentPk)
attr title  "PRR, vector"
vector 498  Net802154MultiGateway.host[35].wrappedHost.trafficgen  sinkRcvdPk:vector(packetBytes)  ETV
attr interpolationmode  none
attr source  sinkRcvdPk
attr title  "own packets received by sink, vector(packetBytes)"
vector 258  Net802154MultiGateway.host[18].wrappedHost.trafficgen  sentPk:vector(packetBytes)  ETV
attr interpolationmode  none
attr source  sentPk
attr title  "packets sent, vector(packetBytes)"
vector 262  Net802154MultiGateway.host[18].wrappedHost.trafficgen  PRR:vector  ETV
attr interpolationmode  none
attr source  count(sinkRcvdPk)/count(sentPk)
attr title  "PRR, vector"
vector 260  Net802154MultiGateway.host[18].wrappedHost.trafficgen  sinkRcvdPk:vector(packetBytes)  ETV
attr interpolationmode  none
attr source  sinkRcvdPk
attr title  "own packets received by sink, vector(packetBytes)"
vector 538  Net802154MultiGateway.host[38].wrappedHost.trafficgen  sentPk:vector(packetBytes)  ETV
attr interpolationmode  none
attr source  sentPk
attr title  "packets sent, vector(packetBytes)"
vector 542  Net802154MultiGateway.host[38].wrappedHost.trafficgen  PRR:vector  ETV
attr interpolationmode  none
attr source  count(sinkRcvdPk)/count(sentPk)
attr title  "PRR, vector"
vector 540  Net802154MultiGateway.host[38].wrappedHost.trafficgen  sinkRcvdPk:vector(packetBytes)  ETV
attr interpolationmode  none
attr source  sinkRcvdPk
attr title  "own packets received by sink, vector(packetBytes)"
vector 314  Net802154MultiGateway.host[22].wrappedHost.trafficgen  sentPk:vector(packetBytes)  ETV
attr interpolationmode  none
attr source  sentPk
attr title  "packets sent, vector(packetBytes)"
vector 318  Net802154MultiGateway.host[22].wrappedHost.trafficgen  PRR:vector  ETV
attr interpolationmode  none
attr source  count(sinkRcvdPk)/count(sentPk)
attr title  "PRR, vector"
vector 316  Net802154MultiGateway.host[22].wrappedHost.trafficgen  sinkRcvdPk:vector(packetBytes)  ETV
attr interpolationmode  none
attr source  sinkRcvdPk
attr title  "own packets received by sink, vector(packetBytes)"
vector 20  Net802154MultiGateway.host[1].wrappedHost.trafficgen  sentPk:vector(packetBytes)  ETV
attr interpolationmode  none
attr source  sentPk
attr title  "packets sent, vector(packetBytes)"
vector 24  Net802154MultiGateway.host[1].wrappedHost.trafficgen  PRR:vector  ETV
attr interpolationmode  none
attr source  count(sinkRcvdPk)/count(sentPk)
attr title  "PRR, vector"
vector 22  Net802154MultiGateway.host[1].wrappedHost.trafficgen  sinkRcvdPk:vector(packetBytes)  ETV
attr interpolationmode  none
attr source  sinkRcvdPk
attr title  "own packets received by sink, vector(packetBytes)"
vector 216  Net802154MultiGateway.host[15].wrappedHost.trafficgen  sentPk:vector(packetBytes)  ETV
attr interpolationmode  none
attr source  sentPk
attr title  "packets sent, vector(packetBytes)"
vector 220  Net802154MultiGateway.host[15].wrappedHost.trafficgen  PRR:vector  ETV
attr interpolationmode  none
attr source  count(sinkRcvdPk)/count(sentPk)
attr title  "PRR, vector"
vector 218  Net802154MultiGateway.host[15].wrappedHost.trafficgen  sinkRcvdPk:vector(packetBytes)  ETV
attr interpolationmode  none
attr source  sinkRcvdPk
attr title  "own packets received by sink, vector(packetBytes)"
vector 608  Net802154MultiGateway.host[43].wrappedHost.trafficgen  sentPk:vector(packetBytes)  ETV
attr interpolationmode  none
attr source  sentPk
attr title  "packets sent, vector(packetBytes)"
vector 612  Net802154MultiGateway.host[43].wrappedHost.trafficgen  PRR:vector  ETV
attr interpolationmode  none
attr source  count(sinkRcvdPk)/count(sentPk)
attr title  "PRR, vector"
vector 610  Net802154MultiGateway.host[43].wrappedHost.trafficgen  sinkRcvdPk:vector(packetBytes)  ETV
attr interpolationmode  none
attr source  sinkRcvdPk
attr title  "own packets received by sink, vector(packetBytes)"
vector 426  Net802154MultiGateway.host[30].wrappedHost.trafficgen  sentPk:vector(packetBytes)  ETV
attr interpolationmode  none
attr source  sentPk
attr title  "packets sent, vector(packetBytes)"
vector 430  Net802154MultiGateway.host[30].wrappedHost.trafficgen  PRR:vector  ETV
attr interpolationmode  none
attr source  count(sinkRcvdPk)/count(sentPk)
attr title  "PRR, vector"
vector 428  Net802154MultiGateway.host[30].wrappedHost.trafficgen  sinkRcvdPk:vector(packetBytes)  ETV
attr interpolationmode  none
attr source  sinkRcvdPk
attr title  "own packets received by sink, vector(packetBytes)"
vector 384  Net802154MultiGateway.host[27].wrappedHost.trafficgen  sentPk:vector(packetBytes)  ETV
attr interpolationmode  none
attr source  sentPk
attr title  "packets sent, vector(packetBytes)"
vector 388  Net802154MultiGateway.host[27].wrappedHost.trafficgen  PRR:vector  ETV
attr interpolationmode  none
attr source  count(sinkRcvdPk)/count(sentPk)
attr title  "PRR, vector"
vector 386  Net802154MultiGateway.host[27].wrappedHost.trafficgen  sinkRcvdPk:vector(packetBytes)  ETV
attr interpolationmode  none
attr source  sinkRcvdPk
attr title  "own packets received by sink, vector(packetBytes)"
vector 244  Net802154MultiGateway.host[17].wrappedHost.trafficgen  sentPk:vector(packetBytes)  ETV
attr interpolationmode  none
attr source  sentPk
attr title  "packets sent, vector(packetBytes)"
vector 248  Net802154MultiGateway.host[17].wrappedHost.trafficgen  PRR:vector  ETV
attr interpolationmode  none
attr source  count(sinkRcvdPk)/count(sentPk)
attr title  "PRR, vector"
vector 246  Net802154MultiGateway.host[17].wrappedHost.trafficgen  sinkRcvdPk:vector(packetBytes)  ETV
attr interpolationmode  none
attr source  sinkRcvdPk
attr title  "own packets received by sink, vector(packetBytes)"
vector 720  Net802154MultiGateway.host[51].wrappedHost.trafficgen  sentPk:vector(packetBytes)  ETV
attr interpolationmode  none
attr source  sentPk
attr title  "packets sent, vector(packetBytes)"
vector 724  Net802154MultiGateway.host[51].wrappedHost.trafficgen  PRR:vector  ETV
attr interpolationmode  none
attr source  count(sinkRcvdPk)/count(sentPk)
attr title  "PRR, vector"
vector 722  Net802154MultiGateway.host[51].wrappedHost.trafficgen  sinkRcvdPk:vector(packetBytes)  ETV
attr interpolationmode  none
attr source  sinkRcvdPk
attr title  "own packets received by sink, vector(packetBytes)"
vector 104  Net802154MultiGateway.host[7].wrappedHost.trafficgen  sentPk:vector(packetBytes)  ETV
attr interpolationmode  none
attr source  sentPk
attr title  "packets sent, vector(packetBytes)"
vector 108  Net802154MultiGateway.host[7].wrappedHost.trafficgen  PRR:vector  ETV
attr interpolationmode  none
attr source  count(sinkRcvdPk)/count(sentPk)
attr title  "PRR, vector"
vector 106  Net802154MultiGateway.host[7].wrappedHost.trafficgen  sinkRcvdPk:vector(packetBytes)  ETV
attr interpolationmode  none
attr source  sinkRcvdPk
attr title  "own packets received by sink, vector(packetBytes)"
vector 776  Net802154MultiGateway.host[55].wrappedHost.trafficgen  sentPk:vector(packetBytes)  ETV
attr interpolationmode  none
attr source  sentPk
attr title  "packets sent, vector(packetBytes)"
vector 780  Net802154MultiGateway.host[55].wrappedHost.trafficgen  PRR:vector  ETV
attr interpolationmode  none
attr source  count(sinkRcvdPk)/count(sentPk)
attr title  "PRR, vector"
vector 762  Net802154MultiGateway.host[54].wrappedHost.trafficgen  sentPk:vector(packetBytes)  ETV
attr interpolationmode  none
attr source  sentPk
attr title  "packets sent, vector(packetBytes)"
vector 766  Net802154MultiGateway.host[54].wrappedHost.trafficgen  PRR:vector  ETV
attr interpolationmode  none
attr source  count(sinkRcvdPk)/count(sentPk)
attr title  "PRR, vector"
vector 328  Net802154MultiGateway.host[23].wrappedHost.trafficgen  sentPk:vector(packetBytes)  ETV
attr interpolationmode  none
attr source  sentPk
attr title  "packets sent, vector(packetBytes)"
vector 332  Net802154MultiGateway.host[23].wrappedHost.trafficgen  PRR:vector  ETV
attr interpolationmode  none
attr source  count(sinkRcvdPk)/count(sentPk)
attr title  "PRR, vector"
vector 482  Net802154MultiGateway.host[34].wrappedHost.trafficgen  sentPk:vector(packetBytes)  ETV
attr interpolationmode  none
attr source  sentPk
attr title  "packets sent, vector(packetBytes)"
vector 486  Net802154MultiGateway.host[34].wrappedHost.trafficgen  PRR:vector  ETV
attr interpolationmode  none
attr source  count(sinkRcvdPk)/count(sentPk)
attr title  "PRR, vector"
vector 132  Net802154MultiGateway.host[9].wrappedHost.trafficgen  sentPk:vector(packetBytes)  ETV
attr interpolationmode  none
attr source  sentPk
attr title  "packets sent, vector(packetBytes)"
vector 136  Net802154MultiGateway.host[9].wrappedHost.trafficgen  PRR:vector  ETV
attr interpolationmode  none
attr source  count(sinkRcvdPk)/count(sentPk)
attr title  "PRR, vector"
vector 330  Net802154MultiGateway.host[23].wrappedHost.trafficgen  sinkRcvdPk:vector(packetBytes)  ETV
attr interpolationmode  none
attr source  sinkRcvdPk
attr title  "own packets received by sink, vector(packetBytes)"
vector 484  Net802154MultiGateway.host[34].wrappedHost.trafficgen  sinkRcvdPk:vector(packetBytes)  ETV
attr interpolationmode  none
attr source  sinkRcvdPk
attr title  "own packets received by sink, vector(packetBytes)"
vector 134  Net802154MultiGateway.host[9].wrappedHost.trafficgen  sinkRcvdPk:vector(packetBytes)  ETV
attr interpolationmode  none
attr source  sinkRcvdPk
attr title  "own packets received by sink, vector(packetBytes)"
vector 778  Net802154MultiGateway.host[55].wrappedHost.trafficgen  sinkRcvdPk:vector(packetBytes)  ETV
attr interpolationmode  none
attr source  sinkRcvdPk
attr title  "own packets received by sink, vector(packetBytes)"
vector 764  Net802154MultiGateway.host[54].wrappedHost.trafficgen  sinkRcvdPk:vector(packetBytes)  ETV
attr interpolationmode  none
attr source  sinkRcvdPk
attr title  "own packets received by sink, vector(packetBytes)"
vector 356  Net802154MultiGateway.host[25].wrappedHost.trafficgen  sentPk:vector(packetBytes)  ETV
attr interpolationmode  none
attr source  sentPk
attr title  "packets sent, vector(packetBytes)"
vector 360  Net802154MultiGateway.host[25].wrappedHost.trafficgen  PRR:vector  ETV
attr interpolationmode  none
attr source  count(sinkRcvdPk)/count(sentPk)
attr title  "PRR, vector"
vector 358  Net802154MultiGateway.host[25].wrappedHost.trafficgen  sinkRcvdPk:vector(packetBytes)  ETV
attr interpolationmode  none
attr source  sinkRcvdPk
attr title  "own packets received by sink, vector(packetBytes)"
vector 552  Net802154MultiGateway.host[39].wrappedHost.trafficgen  sentPk:vector(packetBytes)  ETV
attr interpolationmode  none
attr source  sentPk
attr title  "packets sent, vector(packetBytes)"
vector 556  Net802154MultiGateway.host[39].wrappedHost.trafficgen  PRR:vector  ETV
attr interpolationmode  none
attr source  count(sinkRcvdPk)/count(sentPk)
attr title  "PRR, vector"
vector 202  Net802154MultiGateway.host[14].wrappedHost.trafficgen  sentPk:vector(packetBytes)  ETV
attr interpolationmode  none
attr source  sentPk
attr title  "packets sent, vector(packetBytes)"
vector 206  Net802154MultiGateway.host[14].wrappedHost.trafficgen  PRR:vector  ETV
attr interpolationmode  none
attr source  count(sinkRcvdPk)/count(sentPk)
attr title  "PRR, vector"
vector 204  Net802154MultiGateway.host[14].wrappedHost.trafficgen  sinkRcvdPk:vector(packetBytes)  ETV
attr interpolationmode  none
attr source  sinkRcvdPk
attr title  "own packets received by sink, vector(packetBytes)"
vector 554  Net802154MultiGateway.host[39].wrappedHost.trafficgen  sinkRcvdPk:vector(packetBytes)  ETV
attr interpolationmode  none
attr source  sinkRcvdPk
attr title  "own packets received by sink, vector(packetBytes)"
vector 34  Net802154MultiGateway.host[2].wrappedHost.trafficgen  sentPk:vector(packetBytes)  ETV
attr interpolationmode  none
attr source  sentPk
attr title  "packets sent, vector(packetBytes)"
vector 38  Net802154MultiGateway.host[2].wrappedHost.trafficgen  PRR:vector  ETV
attr interpolationmode  none
attr source  count(sinkRcvdPk)/count(sentPk)
attr title  "PRR, vector"
vector 36  Net802154MultiGateway.host[2].wrappedHost.trafficgen  sinkRcvdPk:vector(packetBytes)  ETV
attr interpolationmode  none
attr source  sinkRcvdPk
attr title  "own packets received by sink, vector(packetBytes)"
vector 580  Net802154MultiGateway.host[41].wrappedHost.trafficgen  sentPk:vector(packetBytes)  ETV
attr interpolationmode  none
attr source  sentPk
attr title  "packets sent, vector(packetBytes)"
vector 584  Net802154MultiGateway.host[41].wrappedHost.trafficgen  PRR:vector  ETV
attr interpolationmode  none
attr source  count(sinkRcvdPk)/count(sentPk)
attr title  "PRR, vector"
vector 524  Net802154MultiGateway.host[37].wrappedHost.trafficgen  sentPk:vector(packetBytes)  ETV
attr interpolationmode  none
attr source  sentPk
attr title  "packets sent, vector(packetBytes)"
vector 528  Net802154MultiGateway.host[37].wrappedHost.trafficgen  PRR:vector  ETV
attr interpolationmode  none
attr source  count(sinkRcvdPk)/count(sentPk)
attr title  "PRR, vector"
vector 582  Net802154MultiGateway.host[41].wrappedHost.trafficgen  sinkRcvdPk:vector(packetBytes)  ETV
attr interpolationmode  none
attr source  sinkRcvdPk
attr title  "own packets received by sink, vector(packetBytes)"
vector 526  Net802154MultiGateway.host[37].wrappedHost.trafficgen  sinkRcvdPk:vector(packetBytes)  ETV
attr interpolationmode  none
attr source  sinkRcvdPk
attr title  "own packets received by sink, vector(packetBytes)"
vector 48  Net802154MultiGateway.host[3].wrappedHost.trafficgen  sentPk:vector(packetBytes)  ETV
attr interpolationmode  none
attr source  sentPk
attr title  "packets sent, vector(packetBytes)"
vector 52  Net802154MultiGateway.host[3].wrappedHost.trafficgen  PRR:vector  ETV
attr interpolationmode  none
attr source  count(sinkRcvdPk)/count(sentPk)
attr title  "PRR, vector"
vector 50  Net802154MultiGateway.host[3].wrappedHost.trafficgen  sinkRcvdPk:vector(packetBytes)  ETV
attr interpolationmode  none
attr source  sinkRcvdPk
attr title  "own packets received by sink, vector(packetBytes)"
vector 118  Net802154MultiGateway.host[8].wrappedHost.trafficgen  sentPk:vector(packetBytes)  ETV
attr interpolationmode  none
attr source  sentPk
attr title  "packets sent, vector(packetBytes)"
vector 122  Net802154MultiGateway.host[8].wrappedHost.trafficgen  PRR:vector  ETV
attr interpolationmode  none
attr source  count(sinkRcvdPk)/count(sentPk)
attr title  "PRR, vector"
vector 120  Net802154MultiGateway.host[8].wrappedHost.trafficgen  sinkRcvdPk:vector(packetBytes)  ETV
attr interpolationmode  none
attr source  sinkRcvdPk
attr title  "own packets received by sink, vector(packetBytes)"
vector 342  Net802154MultiGateway.host[24].wrappedHost.trafficgen  sentPk:vector(packetBytes)  ETV
attr interpolationmode  none
attr source  sentPk
attr title  "packets sent, vector(packetBytes)"
vector 346  Net802154MultiGateway.host[24].wrappedHost.trafficgen  PRR:vector  ETV
attr interpolationmode  none
attr source  count(sinkRcvdPk)/count(sentPk)
attr title  "PRR, vector"
vector 344  Net802154MultiGateway.host[24].wrappedHost.trafficgen  sinkRcvdPk:vector(packetBytes)  ETV
attr interpolationmode  none
attr source  sinkRcvdPk
attr title  "own packets received by sink, vector(packetBytes)"
vector 188  Net802154MultiGateway.host[13].wrappedHost.trafficgen  sentPk:vector(packetBytes)  ETV
attr interpolationmode  none
attr source  sentPk
attr title  "packets sent, vector(packetBytes)"
vector 192  Net802154MultiGateway.host[13].wrappedHost.trafficgen  PRR:vector  ETV
attr interpolationmode  none
attr source  count(sinkRcvdPk)/count(sentPk)
attr title  "PRR, vector"
vector 190  Net802154MultiGateway.host[13].wrappedHost.trafficgen  sinkRcvdPk:vector(packetBytes)  ETV
attr interpolationmode  none
attr source  sinkRcvdPk
attr title  "own packets received by sink, vector(packetBytes)"
vector 734  Net802154MultiGateway.host[52].wrappedHost.trafficgen  sentPk:vector(packetBytes)  ETV
attr interpolationmode  none
attr source  sentPk
attr title  "packets sent, vector(packetBytes)"
vector 738  Net802154MultiGateway.host[52].wrappedHost.trafficgen  PRR:vector  ETV
attr interpolationmode  none
attr source  count(sinkRcvdPk)/count(sentPk)
attr title  "PRR, vector"
vector 736  Net802154MultiGateway.host[52].wrappedHost.trafficgen  sinkRcvdPk:vector(packetBytes)  ETV
attr interpolationmode  none
attr source  sinkRcvdPk
attr title  "own packets received by sink, vector(packetBytes)"
vector 510  Net802154MultiGateway.host[36].wrappedHost.trafficgen  sentPk:vector(packetBytes)  ETV
attr interpolationmode  none
attr source  sentPk
attr title  "packets sent, vector(packetBytes)"
vector 514  Net802154MultiGateway.host[36].wrappedHost.trafficgen  PRR:vector  ETV
attr interpolationmode  none
attr source  count(sinkRcvdPk)/count(sentPk)
attr title  "PRR, vector"
vector 512  Net802154MultiGateway.host[36].wrappedHost.trafficgen  sinkRcvdPk:vector(packetBytes)  ETV
attr interpolationmode  none
attr source  sinkRcvdPk
attr title  "own packets received by sink, vector(packetBytes)"
vector 286  Net802154MultiGateway.host[20].wrappedHost.trafficgen  sentPk:vector(packetBytes)  ETV
attr interpolationmode  none
attr source  sentPk
attr title  "packets sent, vector(packetBytes)"
vector 290  Net802154MultiGateway.host[20].wrappedHost.trafficgen  PRR:vector  ETV
attr interpolationmode  none
attr source  count(sinkRcvdPk)/count(sentPk)
attr title  "PRR, vector"
vector 288  Net802154MultiGateway.host[20].wrappedHost.trafficgen  sinkRcvdPk:vector(packetBytes)  ETV
attr interpolationmode  none
attr source  sinkRcvdPk
attr title  "own packets received by sink, vector(packetBytes)"
vector 636  Net802154MultiGateway.host[45].wrappedHost.trafficgen  sentPk:vector(packetBytes)  ETV
attr interpolationmode  none
attr source  sentPk
attr title  "packets sent, vector(packetBytes)"
vector 640  Net802154MultiGateway.host[45].wrappedHost.trafficgen  PRR:vector  ETV
attr interpolationmode  none
attr source  count(sinkRcvdPk)/count(sentPk)
attr title  "PRR, vector"
vector 454  Net802154MultiGateway.host[32].wrappedHost.trafficgen  sentPk:vector(packetBytes)  ETV
attr interpolationmode  none
attr source  sentPk
attr title  "packets sent, vector(packetBytes)"
vector 458  Net802154MultiGateway.host[32].wrappedHost.trafficgen  PRR:vector  ETV
attr interpolationmode  none
attr source  count(sinkRcvdPk)/count(sentPk)
attr title  "PRR, vector"
vector 456  Net802154MultiGateway.host[32].wrappedHost.trafficgen  sinkRcvdPk:vector(packetBytes)  ETV
attr interpolationmode  none
attr source  sinkRcvdPk
attr title  "own packets received by sink, vector(packetBytes)"
vector 638  Net802154MultiGateway.host[45].wrappedHost.trafficgen  sinkRcvdPk:vector(packetBytes)  ETV
attr interpolationmode  none
attr source  sinkRcvdPk
attr title  "own packets received by sink, vector(packetBytes)"
vector 650  Net802154MultiGateway.host[46].wrappedHost.trafficgen  sentPk:vector(packetBytes)  ETV
attr interpolationmode  none
attr source  sentPk
attr title  "packets sent, vector(packetBytes)"
vector 654  Net802154MultiGateway.host[46].wrappedHost.trafficgen  PRR:vector  ETV
attr interpolationmode  none
attr source  count(sinkRcvdPk)/count(sentPk)
attr title  "PRR, vector"
vector 652  Net802154MultiGateway.host[46].wrappedHost.trafficgen  sinkRcvdPk:vector(packetBytes)  ETV
attr interpolationmode  none
attr source  sinkRcvdPk
attr title  "own packets received by sink, vector(packetBytes)"
vector 622  Net802154MultiGateway.host[44].wrappedHost.trafficgen  sentPk:vector(packetBytes)  ETV
attr interpolationmode  none
attr source  sentPk
attr title  "packets sent, vector(packetBytes)"
vector 626  Net802154MultiGateway.host[44].wrappedHost.trafficgen  PRR:vector  ETV
attr interpolationmode  none
attr source  count(sinkRcvdPk)/count(sentPk)
attr title  "PRR, vector"
vector 624  Net802154MultiGateway.host[44].wrappedHost.trafficgen  sinkRcvdPk:vector(packetBytes)  ETV
attr interpolationmode  none
attr source  sinkRcvdPk
attr title  "own packets received by sink, vector(packetBytes)"
vector 692  Net802154MultiGateway.host[49].wrappedHost.trafficgen  sentPk:vector(packetBytes)  ETV
attr interpolationmode  none
attr source  sentPk
attr title  "packets sent, vector(packetBytes)"
vector 696  Net802154MultiGateway.host[49].wrappedHost.trafficgen  PRR:vector  ETV
attr interpolationmode  none
attr source  count(sinkRcvdPk)/count(sentPk)
attr title  "PRR, vector"
vector 694  Net802154MultiGateway.host[49].wrappedHost.trafficgen  sinkRcvdPk:vector(packetBytes)  ETV
attr interpolationmode  none
attr source  sinkRcvdPk
attr title  "own packets received by sink, vector(packetBytes)"
vector 860  Net802154MultiGateway.host[61].wrappedHost.trafficgen  sentPk:vector(packetBytes)  ETV
attr interpolationmode  none
attr source  sentPk
attr title  "packets sent, vector(packetBytes)"
vector 864  Net802154MultiGateway.host[61].wrappedHost.trafficgen  PRR:vector  ETV
attr interpolationmode  none
attr source  count(sinkRcvdPk)/count(sentPk)
attr title  "PRR, vector"
vector 862  Net802154MultiGateway.host[61].wrappedHost.trafficgen  sinkRcvdPk:vector(packetBytes)  ETV
attr interpolationmode  none
attr source  sinkRcvdPk
attr title  "own packets received by sink, vector(packetBytes)"
5	905805	161.024647454398	76
5	906167	161.077453311088	76
5	906357	161.09130101214	76
5	906426	161.100747678947	76
5	906664	161.118860104136	76
5	906887	161.136920468146	76
5	907204	161.157948548483	76
5	907414	161.165516375904	76
5	907472	161.17019347931	76
5	907810	161.230406273682	76
5	908038	161.243446880879	76
5	908361	161.363173066614	76
5	908439	161.370675344523	76
5	908669	161.393640735603	76
5	908823	161.523019444506	76
5	909269	161.582615792875	76
5	909410	161.595442768751	76
5	909723	161.692836900939	76
5	910004	161.716044443053	76
5	910151	161.72228449329	76
5	910380	161.734614621592	76
5	910502	161.740892395286	76
5	910642	161.752289937282	76
5	910878	161.806193569064	76
5	910942	161.824756300809	76
5	911004	161.835773061285	76
5	911238	161.905247340787	76
5	911515	161.964407129775	76
5	911698	161.977982611014	76
5	911820	161.987619688125	76
5	912257	162.035996211356	76
5	912331	162.044841314907	76
5	912686	162.091755657278	76
5	912887	162.105398028268	76
5	912960	162.110011732862	76
5	913177	162.132986843089	76
5	913405	162.155799040149	76
5	913651	162.180105887013	76
5	913779	162.193731079108	76
5	914023	162.215116219412	76
5	914247	162.235342383383	76
5	914311	162.258386409206	76
5	914373	162.300208075207	76
5	914604	162.331541801245	76
5	914790	162.367719255704	76
5	915070	162.40209714497	76
5	915303	162.426035548708	76
5	915586	162.4587533711	76
5	915707	162.515911330419	76
5	915890	162.554591832401	76
5	916127	162.609175579308	76
5	916316	162.631949499918	76
5	916522	162.705863512237	76
5	916825	162.753756775397	76
5	917010	162.769549968069	76
5	917252	162.824192058991	76
5	917599	162.841764501267	76
5	917657	162.846718752414	76
5	917843	162.889657269834	76
5	918028	162.927944058708	76
5	918324	163.003812633256	76
5	918557	163.036118461497	76
5	918823	163.152998761891	76
5	919056	163.215176580108	76
5	919365	163.254534860458	76
5	919604	163.266333545616	76
5	919887	163.280779467696	76
5	920026	163.296058418987	76
5	920262	163.329981000424	76
5	920566	163.381489522172	76
5	920799	163.419793188167	76
5	920863	163.460234309504	76
5	921030	163.561470447755	76
5	921252	163.584720574262	76
5	921420	163.62176001913	76
5	921628	163.631750972052	76
5	922068	163.648023987531	76
5	922201	163.65610660077	76
5	922568	163.668769918263	76
5	922762	163.676180986827	76
5	922974	163.685889606986	76
5	923054	163.692207028138	76
5	923243	163.78666766942	76
5	923429	163.838727722786	76
5	923601	163.852020269893	76
5	923846	163.910498301144	76
5	923951	163.917614223925	76
5	924139	163.937290618508	76
5	924250	164.015112072676	76
5	924559	164.036922297772	76
5	924633	164.046436433516	76
5	924822	164.067940863594	76
5	925085	164.105773519577	76
5	925298	164.121553451325	76
5	925532	164.178097942177	76
5	925718	164.198011685185	76
5	925845	164.217324811573	76
5	926029	164.238322704589	76
5	926231	164.405710258144	76
5	926317	164.411371596172	76
5	926459	164.422806062805	76
5	926958	164.495659619315	76
5	927078	164.503959826143	76
5	927322	164.523584110971	76
5	927690	164.539600897094	76
5	928240	164.569145171838	76
5	928338	164.574969838966	76
5	928602	164.591138248905	76
5	928836	164.623394696556	76
5	928900	164.688256126077	76
5	929134	164.779125755948	76
5	929424	164.807184414867	76
5	929587	164.849117434927	76
5	929936	164.879784794648	76
5	930047	164.888892262244	76
5	930175	164.968988810475	76
5	930361	165.051840101874	76
5	930442	165.115497849452	76
5	930611	165.130283121591	76
5	930675	165.220050314418	76
5	930920	165.256332108246	76
5	931172	165.273400681172	76
5	931297	165.28875133613	76
5	931530	165.318389057465	76
5	931657	165.33053596846	76
5	931935	165.386571154461	76
5	932044	165.397398479673	76
5	932279	165.421236141303	76
5	932527	165.473140204941	76
5	932584	165.478644872069	76
5	932831	165.559116004672	76
5	933058	165.579909109406	76
5	933241	165.59641395792	76
5	933430	165.687660958232	76
5	933610	165.704233252854	76
5	933846	165.752580343257	76
5	934032	165.774463259778	76
5	934285	165.814365144818	76
5	934456	165.829237468409	76
5	934641	165.896360923002	76
5	934967	165.925487720757	76
5	935044	165.93168623895	76
5	935103	165.94067044804	76
5	935230	166.00232929833	76
5	935560	166.028285114395	76
5	935700	166.039667945309	76
5	935995	166.116881260014	76
5	936130	166.125767793423	76
5	936249	166.135779078055	76
5	936376	166.172323998953	76
5	936503	166.185670394883	76
5	936630	166.289900530043	76
5	937033	166.344018094748	76
5	937107	166.34885735454	76
5	937233	166.357894273908	76
5	937362	166.465894404408	76
5	937489	166.496978234499	76
5	937672	166.576002338357	76
5	937799	166.598840869978	76
5	937984	166.645547835935	76
5	938171	166.66677582534	76
5	938404	166.713072764184	76
5	938777	166.73751090446	76
5	938852	166.74590240298	76
5	939091	166.76739619449	76
5	939324	166.797909733956	76
5	939510	166.837682734527	76
5	939808	166.874902095531	76
5	939934	166.886538710423	76
5	940117	166.928741220471	76
5	940350	167.028432167447	76
5	940477	167.045380258658	76
5	940664	167.062290588638	76
5	940915	167.146173778722	76
5	941088	167.163022938004	76
5	941416	167.229658669116	76
5	941554	167.243519514846	76
5	941684	167.300576465059	76
5	941866	167.316387968812	76
5	942050	167.349631905047	76
5	942280	167.466476790937	76
5	942406	167.523751485881	76
5	942637	167.535506960908	76
5	942896	167.556369170553	76
5	943002	167.564691563395	76
5	943186	167.582602845548	76
5	943479	167.619776855782	76
5	943539	167.624314691916	76
5	943670	167.681682130694	76
5	943853	167.698191479597	76
5	944129	167.750426873432	76
5	944270	167.763960981487	76
5	944329	167.770745648615	76
5	944513	167.885309525402	76
5	944756	168.006359793807	76
5	944876	168.013013248478	76
5	945041	168.022389895973	76
5	945130	168.032773372265	76
5	945388	168.053849236248	76
5	945606	168.070226189617	76
5	945804	168.089175164595	76
5	946043	168.135953543777	76
5	946180	168.274274248335	76
5	946537	168.290667725234	76
5	946597	168.296150499258	76
5	946828	168.338859264343	76
5	947199	168.396090728719	76
5	947354	168.408202258598	76
5	947429	168.414648238704	76
5	947614	168.443154216161	76
5	947852	168.474991006861	76
5	947916	168.486932222855	76
5	948147	168.560691213462	76
5	948330	168.576791679296	76
5	948457	168.614738271496	76
5	948690	168.678774887758	76
5	948817	168.713510805055	76
5	949000	168.747407382519	76
5	949127	168.774840185427	76
5	949435	168.844811048879	76
5	949574	168.856209423774	76
5	949649	168.898644709707	76
5	949877	168.916152081956	76
5	950004	168.954238942313	76
5	950193	169.090585071886	76
5	950257	169.133744641106	76
5	950392	169.203423073157	76
5	950481	169.208957034568	76
5	950754	169.225979213756	76
5	950831	169.234953963255	76
5	951014	169.360663720162	76
5	951313	169.388667566335	76
5	951488	169.401907109997	76
5	951724	169.445002023698	76
5	951969	169.474456396075	76
5	952094	169.486378041158	76
5	952221	169.59670060217	76
5	952411	169.627480453548	76
5	952584	169.642192883854	76
5	952770	169.695216617066	76
5	953078	169.723532950553	76
5	953201	169.730628671584	76
5	953406	169.753493898832	76
5	953591	169.853777264253	76
5	953719	169.880048390821	76
5	953964	169.968300555545	76
5	954145	169.983659652459	76
5	954440	170.032275332716	76
5	954567	170.08351170126	76
5	954847	170.114874629698	76
5	955074	170.177532121026	76
5	955342	170.207497553531	76
5	955507	170.221878017964	76
5	955634	170.279286938413	76
5	956109	170.329858212225	76
5	956234	170.338147604184	76
5	956427	170.350497357414	76
5	956663	170.373006170774	76
5	956970	170.411784473085	76
5	957094	170.42292543525	76
5	957281	170.461754122657	76
5	957599	170.583084696851	76
5	957995	170.63422270677	76
5	958052	170.63929833004	76
5	958286	170.66817102437	76
5	958608	170.826435380863	76
5	958704	170.834965935593	76
5	958763	170.841430602721	76
5	958951	170.869480176444	76
5	959036	170.874253586425	76
5	959235	170.88727698199	76
5	959455	170.899170832587	76
5	959716	170.967239034168	76
5	959875	171.079558194135	76
5	960161	171.116028078019	76
5	960287	171.129327302428	76
5	960565	171.197231646613	76
5	960799	171.224822345063	76
5	961082	171.394289445442	76
5	961302	171.420485223534	76
5	961600	171.461818661416	76
5	961724	171.473659488198	76
5	961917	171.520378876803	76
5	962231	171.560781054357	76
5	962305	171.568120875376	76
5	962701	171.603412275542	76
5	962900	171.615197279552	76
5	962963	171.626677417646	76
5	963025	171.653475371851	76
5	963260	171.703770669774	76
5	963354	171.708890414815	76
5	963496	171.721398993467	76
5	963734	171.751637769462	76
5	963796	171.756970409898	76
5	964080	171.819649383558	76
5	964269	171.874789527754	76
5	964454	171.929795233554	76
5	964741	171.971873221232	76
5	964964	172.013572955264	76
5	965112	172.023750317739	76
5	965412	172.05862441241	76
5	965554	172.071527612341	76
5	965834	172.111959152518	76
5	966098	172.136222709162	76
5	966381	172.204465976228	76
5	966796	172.233028253606	76
5	966871	172.242300062223	76
5	966946	172.276566837466	76
5	967095	172.285147445905	76
5	967218	172.29498575366	76
5	967406	172.356744658232	76
5	967576	172.373419087111	76
5	967706	172.406923526882	76
5	968063	172.494132117202	76
5	968318	172.50862931997	76
5	968458	172.519690035335	76
5	968701	172.551951452157	76
5	968765	172.559998300489	76
5	968887	172.56992962602	76
5	969016	172.638136820963	76
5	969307	172.699809723484	76
5	969537	172.709526785068	76
5	969675	172.715919101733	76
5	969826	172.728550132371	76
5	970056	172.746639778913	76
5	970255	172.812732494298	76
5	970543	172.833443199004	76
5	970785	172.889881994829	76
5	970990	172.921867688036	76
5	971160	172.932545900192	76
5	971402	172.980488704594	76
5	971705	173.033700332367	76
5	971843	173.062108795249	76
5	972068	173.079691603942	76
5	972378	173.108082037645	76
5	972711	173.125833211421	76
5	972770	173.131977878549	76
5	972959	173.169820517434	76
5	973195	173.22287765572	76
5	973322	173.246775804888	76
5	973558	173.278970521637	76
5	973799	173.306082113559	76
5	974080	173.323012444466	76
5	974248	173.334364452654	76
5	974592	173.390280327656	76
5	974667	173.398444905688	76
5	974794	173.409197807035	76
5	975009	173.440730923751	76
5	975164	173.44913833091	76
5	975224	173.457935987612	76
5	975655	173.516326921224	76
5	975783	173.524222208007	76
5	975987	173.542454150083	76
5	976280	173.583185016037	76
5	976450	173.59839341897	76
5	976709	173.647654852266	76
5	976771	173.654801843955	76
5	976835	173.689183979512	76
5	977120	173.735300918849	76
5	977464	173.809293316756	76
5	977619	173.823454964807	76
5	977862	173.84096837467	76
5	978173	173.92523531185	76
5	978233	173.934656609833	76
5	978479	173.958566415015	76
5	978702	173.976285307834	76
5	978903	174.050407971355	76
5	978967	174.118610869359	76
5	979204	174.181908092901	76
5	979331	174.198760298558	76
5	979703	174.257369567438	76
5	979967	174.275076546734	76
5	980037	174.280015927997	76
5	980204	174.29174421715	76
5	980428	174.309506555383	76
5	980617	174.33058985372	76
5	980803	174.395385119741	76
5	980867	174.412393493676	76
5	981104	174.468188889838	76
5	981378	174.496874581078	76
5	981570	174.514248886854	76
5	981741	174.548778261661	76
5	982184	174.571115568317	76
5	982352	174.576699625873	76
5	982705	174.58655661247	76
5	982959	174.595038824288	76
5	983258	174.605489212896	76
5	983524	174.617317662182	76
5	983599	174.626587769252	76
5	983726	174.6671916934	76
5	983926	174.691684424085	76
5	984215	174.710293795941	76
5	984418	174.72667013284	76
5	984575	174.74186766853	76
5	984985	174.845796911655	76
5	985237	174.858733327169	76
5	985461	174.870452487213	76
5	985609	174.880880656522	76
5	985666	174.886020150875	76
5	985855	174.942759581978	76
5	986041	174.965055276866	76
5	986228	175.00275338652	76
5	986457	175.091347582609	76
5	986585	175.135052944189	76
5	986834	175.297446970159	76
5	987001	175.30810553873	76
5	987413	175.364779122149	76
5	987627	175.370991114437	76
5	987949	175.384311222278	76
5	988139	175.392479636638	76
5	988415	175.405985563529	76
5	988500	175.410715818372	76
5	988631	175.459554488363	76
5	988786	175.48205509006	76
5	988977	175.491371905938	76
5	989151	175.502326993669	76
5	989336	175.521278381148	76
5	989567	175.578910068708	76
5	989753	175.634021957848	76
5	990067	175.71094622534	76
5	990128	175.724768840066	76
5	990359	175.777580790688	76
5	990542	175.804429558105	76
5	990735	175.921065206485	76
5	990796	175.93318665249	76
5	991031	176.053089495816	76
5	991215	176.068649065288	76
5	991447	176.101640611704	76
5	991512	176.155906157674	76
5	991702	176.17771954003	76
5	991881	176.186564834848	76
5	992023	176.198617609843	76
5	992162	176.31457464662	76
5	992234	176.324168388102	76
5	992420	176.367471844568	76
5	992659	176.409151038955	76
5	992855	176.539290207101	76
5	993054	176.553664737159	76
5	993254	176.573351224043	76
5	993496	176.644697837563	76
5	993926	176.687803279518	76
5	994020	176.695472827136	76
5	994266	176.708568490795	76
5	994376	176.716047846584	76
5	994667	176.745750640606	76
5	994816	176.754973113344	76
5	995112	176.778737288702	76
5	995179	176.799140916905	76
5	995377	176.85815705366	76
5	995601	176.880067678584	76
5	995714	176.887876951796	76
5	996000	176.903966662993	76
5	996123	176.914527744934	76
5	996392	176.935875525866	76
5	996520	176.975531408224	76
5	996709	177.004387450337	76
5	996836	177.086301598838	76
5	997095	177.13216539769	76
5	997784	177.15722834462	76
5	997928	177.16410723682	76
5	998026	177.169070502785	76
5	998101	177.173615169913	76
5	998178	177.179661065433	76
5	998346	177.192228614641	76
5	998542	177.21861398576	76
5	998779	177.232205512065	76
5	998851	177.238663047775	76
5	998978	177.335471330814	76
5	999212	177.415070854456	76
5	999449	177.455859638158	76
5	999689	177.497865135895	76
5	999875	177.531999185915	76
5	1000220	177.653021157197	76
5	1000594	177.668824704108	76
5	1000737	177.675471556264	76
5	1000863	177.687316937834	76
5	1001107	177.742707983073	76
5	1001362	177.758613289853	76
5	1001561	177.777116000035	76
5	1001793	177.832893968955	76
5	1002152	177.910298911465	76
5	1002209	177.914923946169	76
5	1002397	177.972902351613	76
5	1002583	178.013428299167	76
5	1002822	178.044218956657	76
5	1003058	178.083690716301	76
5	1003244	178.119393542893	76
5	1003481	178.143055670704	76
5	1003781	178.19865226838	76
5	1003969	178.213364387991	76
5	1004168	178.232399831423	76
5	1004404	178.274135192865	76
5	1004730	178.300817560994	76
5	1005012	178.318106967374	76
5	1005102	178.326112193684	76
5	1005273	178.338372919996	76
5	1005522	178.418897238272	76
5	1005850	178.433936341393	76
5	1005924	178.442779753469	76
5	1006160	178.54808083576	76
5	1006400	178.613083302307	76
5	1006583	178.628420855841	76
5	1006766	178.675239391445	76
5	1006830	178.749063261745	76
5	1007058	178.80025689185	76
5	1007308	178.853573305967	76
5	1007493	178.870021973095	76
5	1007683	178.900521634805	76
5	1007869	178.955715983833	76
5	1008230	179.109542857965	76
5	1008429	179.123500210526	76
5	1008553	179.128364877654	76
5	1008729	179.140852358899	76
5	1008961	179.160467357189	76
5	1009160	179.176218121997	76
5	1009310	179.192519691813	76
5	1009495	179.211682330593	76
5	1009728	179.2731556467	76
5	1010029	179.307612701983	76
5	1010171	179.319140190226	76
5	1010407	179.393627009119	76
5	1010736	179.414970842502	76
5	1010877	179.430892868702	76
5	1011119	179.509204922883	76
5	1011180	179.515934080402	76
5	1011244	179.545536878399	76
5	1011550	179.594798381744	76
5	1011689	179.609502279408	76
5	1011928	179.633870049667	76
5	1011992	179.65855515811	76
5	1012117	179.751873048635	76
5	1012300	179.78403001235	76
5	1012592	179.810435271237	76
5	1012786	179.821396232124	76
5	1012909	179.826131487539	76
5	1013181	179.847223147261	76
5	1013417	179.892875550034	76
5	1013660	179.91968135593	76
5	1013968	179.940014443492	76
5	1014040	179.946359459736	76
5	1014264	179.964884149076	76
5	1014497	179.999450341681	76
5	1014756	180.026982794677	76
5	1014995	180.044161069845	76
5	1015144	180.054192449629	76
5	1015333	180.159981380924	76
5	1015545	180.170639434599	76
5	1015746	180.190481048613	76
5	1015990	180.401436346283	76
5	1016112	180.411467881118	76
5	1016177	180.422338041526	76
5	1016386	180.450732160798	76
5	1016561	180.499721720839	76
5	1016800	180.518571493888	76
5	1017047	180.53583170092	76
5	1017105	180.54045952054	76
5	1017202	180.620627194791	76
5	1017425	180.686153463868	76
5	1017580	180.711673397504	76
5	1017952	180.724626311923	76
5	1018061	180.732256694867	76
5	1018171	180.740000421482	76
5	1018328	180.756511757558	76
5	1018554	180.774132395737	76
5	1018788	180.806274139785	76
5	1019025	180.836379592127	76
5	1019217	180.862593602956	76
5	1019289	180.869441840093	76
5	1019618	180.924449258586	76
5	1019679	180.929388637522	76
5	1019912	180.971133921648	76
5	1020098	180.997108489885	76
5	1020420	181.048449456734	76
5	1020739	181.119626831147	76
5	1020872	181.141900158065	76
5	1021063	181.157802049906	76
5	1021252	181.191975365356	76
5	1021470	181.210803372839	76
5	1021726	181.23458152205	76
5	1021853	181.380143189471	76
5	1022082	181.402500601466	76
5	1022438	181.437302482354	76
5	1022665	181.443766367476	76
5	1022912	181.454213488969	76
5	1023069	181.463196191808	76
5	1023196	181.473212927635	76
5	1023261	181.477846827798	76
5	1023324	181.489549447476	76
5	1023463	181.599248413871	76
5	1023602	181.611120342641	76
5	1023987	181.662613213021	76
5	1024381	181.675754649249	76
5	1024507	181.684771366981	76
5	1024702	181.706933945146	76
5	1024761	181.713398612274	76
5	1024946	181.734930915832	76
5	1025217	181.841265133158	76
5	1025435	181.923925057154	76
5	1025692	182.002694505799	76
5	1025803	182.055197014003	76
5	1025931	182.109283755396	76
5	1026119	182.126083065146	76
5	1026349	182.17926071603	76
5	1026624	182.223083523347	76
5	1026922	182.244866239054	76
5	1027062	182.257408123463	76
5	1027189	182.289947899694	76
5	1027253	182.314985317377	76
5	1027439	182.332097352358	76
5	1027626	182.34312931469	76
5	1027799	182.355758158366	76
5	1028139	182.394898361389	76
5	1028415	182.413939984141	76
5	1028701	182.456123713263	76
5	1028901	182.474758904823	76
5	1029137	182.545414959155	76
5	1029321	182.641378777416	76
5	1029554	182.689929298284	76
5	1029882	182.805385528007	76
5	1030106	182.824040756326	76
5	1030368	182.909824149489	76
5	1030614	182.938478427572	76
5	1030820	182.949652326551	76
5	1030960	182.957238699419	76
5	1031133	182.969866284083	76
5	1031260	182.982571440352	76
5	1031515	183.057429222776	76
5	1031798	183.113900632336	76
5	1032031	183.140166994463	76
5	1032267	183.190229937194	76
5	1032631	183.24318356914	76
5	1032843	183.254477360723	76
5	1032920	183.260943786028	76
5	1033201	183.308570873592	76
5	1033482	183.336277223986	76
5	1033712	183.368220349381	76
5	1033862	183.394275196605	76
5	1034204	183.40637324321	76
5	1034409	183.416745054586	76
5	1034566	183.422033673748	76
5	1034875	183.433017881368	76
5	1035023	183.442141817777	76
5	1035097	183.450858116536	76
5	1035348	183.480023501896	76
5	1035458	183.485050951944	76
5	1035658	183.504678871789	76
5	1035722	183.52248863737	76
5	1035847	183.535880176037	76
5	1036033	183.55304237887	76
5	1036210	183.598222637935	76
5	1036404	183.613927508469	76
5	1036634	183.625586945856	76
5	1036743	183.632592817413	76
5	1036993	183.723800128077	76
5	1037216	183.739856010325	76
5	1037355	183.761661507861	76
5	1037580	183.784260684293	76
5	1037823	183.804611884092	76
5	1038042	183.823840847003	76
5	1038362	184.168402752583	76
5	1038608	184.180535318334	76
5	1038842	184.262144425145	76
5	1039081	184.313288598415	76
5	1039296	184.369589643295	76
5	1039666	184.453540372801	76
5	1039969	184.475458092269	76
5	1040032	184.485755035212	76
5	1040525	184.571431270677	76
5	1040694	184.585623212727	76
5	1040955	184.66315375868	76
5	1041209	184.674947165482	76
5	1041319	184.682907791085	76
5	1041384	184.703453105732	76
5	1041739	184.766057286241	76
5	1041960	184.781006968719	76
5	1042091	184.790732604542	76
5	1042305	184.829712936368	76
5	1042538	184.993984114669	76
5	1042774	185.090036375567	76
5	1042957	185.128190520938	76
5	1043118	185.252282467014	76
5	1043305	185.270242145621	76
5	1043432	185.303294819791	76
5	1043732	185.33645595527	76
5	1043876	185.348961242034	76
5	1044112	185.442937920812	76
5	1044301	185.490401506903	76
5	1044365	185.573520947806	76
5	1044490	185.674725932816	76
5	1044745	185.721784465364	76
5	1044802	185.726969132492	76
5	1044988	185.852200082752	76
5	1045384	185.915516079025	76
5	1045472	185.924702351654	76
5	1045793	185.954808879275	76
5	1045962	185.96526527758	76
5	1046206	185.980422575255	76
5	1046407	185.996495546164	76
5	1046534	186.037529464716	76
5	1046780	186.08367839342	76
5	1047127	186.103537714639	76
5	1047299	186.113350748395	76
5	1047422	186.12285405933	76
5	1047660	186.371684661994	76
5	1047892	186.535343247455	76
5	1048076	186.653651184601	76
5	1048140	186.673819906939	76
5	1048320	186.749507286608	76
5	1048662	186.831342065413	76
5	1048811	186.844511147224	76
5	1048935	186.85620818137	76
5	1049062	186.878038700355	76
5	1049295	187.016875140229	76
5	1049526	187.058259452868	76
5	1049655	187.232934966336	76
5	1050018	187.364511791011	76
5	1050127	187.369642539267	76
5	1050299	187.38377776616	76
5	1050426	187.464142309084	76
5	1050553	187.525827612513	76
5	1050615	187.533794194039	76
5	1050742	187.559292509344	76
5	1050817	187.59281067083	76
5	1051040	187.610966489527	76
5	1051274	187.655119174298	76
5	1051457	187.70290403231	76
5	1051691	187.732856087074	76
5	1051878	187.750505755004	76
5	1052005	187.83543169335	76
5	1052247	187.860224783552	76
5	1052497	187.875264090994	76
5	1052638	187.889094956645	76
5	1052962	187.938732135859	76
5	1053144	187.953292144889	76
5	1053220	187.958450043256	76
5	1053467	188.005738055504	76
5	1053589	188.014570722632	76
5	1053833	188.066875915542	76
5	1053960	188.0923535653	76
5	1054250	188.127578635328	76
5	1054390	188.138923360722	76
5	1054517	188.172318340533	76
5	1054703	188.206629674607	76
5	1055052	188.23904976511	76
5	1055112	188.245790451781	76
5	1055302	188.302359178233	76
5	1055366	188.386339737465	76
5	1055491	188.430507229443	76
5	1055727	188.522332714886	76
5	1056044	188.600075574816	76
5	1056108	188.608095096272	76
5	1056194	188.616435283257	76
5	1056430	188.671667050891	76
5	1056616	188.74283734355	76
5	1056680	188.777012186915	76
5	1056914	188.834775232308	76
5	1056978	188.852538095239	76
5	1057160	188.869520314131	76
5	1057392	188.900972816639	76
5	1057456	188.954779796174	76
5	1057686	188.986925103837	76
5	1057818	188.999112956076	76
5	1057969	189.014230705527	76
5	1058300	189.03163138561	76
5	1058375	189.03788004297	76
5	1058500	189.048682059845	76
5	1058804	189.093803853064	76
5	1058945	189.105127999854	76
5	1059178	189.139055685963	76
5	1059433	189.175007815853	76
5	1059640	189.191670572676	76
5	1059813	189.20486737917	76
5	1060046	189.249360120255	76
5	1060173	189.282436179998	76
5	1060300	189.29349890941	76
5	1060364	189.307613624103	76
5	1060598	189.343213128109	76
5	1060841	189.376851567412	76
5	1061038	189.3959969339	76
5	1061165	189.426236218821	76
5	1061354	189.497792687739	76
5	1061630	189.541053506918	76
5	1061969	189.556333019557	76
5	1062052	189.560922061282	76
5	1062192	189.573556700072	76
5	1062440	189.592151196186	76
5	1062727	189.605571195535	76
5	1062783	189.610097820297	76
5	1063018	189.738801575343	76
5	1063159	189.755204432926	76
5	1063425	189.768861582989	76
5	1063709	189.779841795774	76
5	1063769	189.784750085925	76
5	1064004	189.834009998949	76
5	1064190	189.874792919914	76
5	1064377	189.897379972011	76
5	1064506	189.994527465198	76
5	1064820	190.06552662543	76
5	1064895	190.071471738038	76
5	1065134	190.103717933197	76
5	1065261	190.147763292214	76
5	1065435	190.187168188503	76
5	1065562	190.213107723082	76
5	1065804	190.288650917858	76
5	1066193	190.333648925996	76
5	1066390	190.345931583015	76
5	1066574	190.356762146481	76
5	1066757	190.369135510477	76
5	1067229	190.464422343426	76
5	1067308	190.472639216533	76
5	1067432	190.484970516524	76
5	1067647	190.561813725341	76
5	1067821	190.596604505043	76
5	1068007	190.625355311834	76
5	1068267	190.661597272904	76
5	1068531	190.727811911067	76
5	1068910	190.902833204585	76
5	1069180	190.948087580996	76
5	1069307	190.959192200849	76
5	1069543	190.999126465507	76
5	1069782	191.090809819615	76
5	1070035	191.154779276329	76
5	1070432	191.177257539656	76
5	1070695	191.211327103532	76
5	1070938	191.2456505745	76
5	1071133	191.266409901988	76
5	1071244	191.3175852721	76
5	1071428	191.335811079618	76
5	1071701	191.375883902845	76
5	1071772	191.380524769325	76
5	1071997	191.402194171743	76
5	1072257	191.494847494798	76
5	1072548	191.546547945685	76
5	1072863	191.564448862826	76
5	1073129	191.571643107641	76
5	1073348	191.586088125759	76
5	1073495	191.597671322269	76
5	1073581	191.603481097377	76
5	1073780	191.615432266178	76
5	1073839	191.624253438133	76
5	1074143	191.681751820965	76
5	1074463	191.694365514593	76
5	1074527	191.699845220445	76
5	1074887	191.758570253855	76
5	1075048	191.764630735695	76
5	1075233	191.774946388862	76
5	1075406	191.789653512674	76
5	1075533	191.822795343326	76
5	1075844	191.869279057914	76
5	1075982	191.884715145337	76
5	1076417	191.975109599656	76
5	1076561	191.981120756389	76
5	1076640	191.986274429059	76
5	1076855	192.011539170366	76
5	1076982	192.066715067084	76
5	1077079	192.141590238089	76
5	1077347	192.254558399097	76
5	1077578	192.276097092274	76
5	1077813	192.380279953914	76
5	1078220	192.416032087906	76
5	1078284	192.427360799981	76
5	1078571	192.494449428795	76
5	1078788	192.521937806421	76
5	1078970	192.536819985295	76
5	1079187	192.567897468334	76
5	1079376	192.593072968003	76
5	1079611	192.660746200475	76
5	1079897	192.735171301409	76
5	1079964	192.800448052277	76
5	1080175	192.80937944977	76
5	1080315	192.817948934437	76
5	1080632	192.835551053381	76
5	1080935	192.849968471268	76
5	1081059	192.858869728073	76
5	1081152	192.868499589815	76
5	1081226	192.873684256943	76
5	1081486	192.894310743164	76
5	1081640	192.908323671298	76
5	1081822	192.922080260798	76
5	1082053	193.056002612093	76
5	1082117	193.071446094457	76
5	1082297	193.099671626206	76
5	1082465	193.12498833147	76
5	1082521	193.129510404002	76
5	1082756	193.163140267338	76
5	1082883	193.182556197246	76
5	1083037	193.260748637334	76
5	1083272	193.335909987129	76
5	1083628	193.362377899808	76
5	1083768	193.373696189062	76
5	1083972	193.414546301936	76
5	1084171	193.434613460886	76
5	1084281	193.484912715347	76
5	1084613	193.515951434746	76
5	1084740	193.530512491744	76
5	1084978	193.551045768136	76
5	1085258	193.571936382326	76
5	1085494	193.613392243527	76
5	1085730	193.722856322925	76
5	1085966	193.758055500389	76
5	1086116	193.797556356352	76
5	1086359	193.817423766026	76
5	1086622	193.834107918768	76
5	1086817	193.854441482947	76
5	1087125	193.887674430605	76
5	1087260	193.895162028267	76
5	1087577	193.912135023815	76
5	1087760	193.925960411773	76
5	1088055	193.961988007944	76
5	1088224	193.973826612022	76
5	1088491	194.081545474235	76
5	1089131	194.134799353614	76
5	1089355	194.143710986786	76
5	1089501	194.15037353453	76
5	1089574	194.159232326562	76
5	1089760	194.211302754387	76
5	1089886	194.221780158002	76
5	1090297	194.292316833153	76
5	1090360	194.299019051572	76
5	1090515	194.369321859481	76
5	1090714	194.385006294685	76
5	1090844	194.397066380991	76
5	1091033	194.414013484794	76
5	1091251	194.430445160844	76
5	1091464	194.461655314782	76
5	1091699	194.473437903581	76
5	1091889	194.504565693538	76
5	1092116	194.526778834898	76
5	1092243	194.561905234585	76
5	1092476	194.598749603086	76
5	1092602	194.609066027634	76
5	1092730	194.647709983843	76
5	1092862	194.673875201427	76
5	1092921	194.678353902793	76
5	1093156	194.726495697476	76
5	1093497	194.767584510811	76
5	1093685	194.779737336655	76
5	1094025	194.791130003783	76
5	1094149	194.795869626254	76
5	1094274	194.800591520368	76
5	1094345	194.805388675073	76
5	1094557	194.816176106462	76
5	1094622	194.827766716518	76
5	1094929	194.954459966823	76
5	1095040	195.044384908407	76
5	1095385	195.086649766813	76
5	1095510	195.098170951906	76
5	1095637	195.116861154187	76
5	1095779	195.151514402791	76
[...]
850	1596389	282.96441140143	1
850	1610138	285.568153335713	0.98387096774194
850	1610459	285.597562823121	1
850	1614843	286.237965460845	0.98412698412698
850	1615038	286.261998948253	1
850	1618345	286.818878784752	0.984375
850	1618610	286.83779227216	1
850	1624265	287.610860521511	0.98461538461538
850	1625615	287.689524414385	1
850	1686506	298.643916314062	0.98484848484848
850	1686753	298.66442980147	1
850	1713623	303.177990952265	0.98507462686567
850	1713891	303.202344439673	1
850	1718029	304.015888689124	0.98529411764706
850	1718224	304.037042176532	1
850	1731591	306.120816576768	0.98550724637681
850	1731785	306.143250064176	1
850	1738567	306.977179412784	0.98571428571429
850	1738808	306.998012900192	1
850	1742221	307.580490796195	0.98591549295775
850	1742416	307.603564283603	1
850	1760189	311.139702599229	0.98611111111111
850	1760447	311.160536086637	1
850	1763698	311.76807908994	0.98630136986301
850	1763939	311.791472577348	1
850	1765050	312.074903654358	0.98648648648649
850	1785662	315.272174377922	0.97333333333333
850	1786109	315.30705586533	0.98666666666667
850	1797732	317.755944617363	0.97368421052632
850	1797927	317.777418104771	0.98684210526316
850	1800402	318.365490604677	0.97402597402597
850	1800783	318.387924092085	0.98701298701299
850	1808252	319.906247017654	0.97435897435897
850	1808593	319.927720505062	0.98717948717949
850	1813168	320.541550078556	0.9746835443038
850	1813412	320.563663565964	0.9873417721519
850	1850544	326.446011936081	0.975
850	1850753	326.467805423489	0.9875
850	1851591	326.649204192955	0.97530864197531
850	1851785	326.669077680363	0.98765432098765
850	1859443	328.140842743985	0.97560975609756
850	1860295	328.178236231393	0.98780487804878
850	1865305	329.020196363671	0.97590361445783
850	1865500	329.044229851079	0.98795180722892
850	1881073	331.9241292138	0.97619047619048
850	1881386	331.942402701208	0.98809523809524
850	1885897	332.287649468447	0.97647058823529
850	1886109	332.311682955855	0.98823529411765
850	1886218	332.369356425246	0.97674418604651
850	1886524	332.391789912654	0.98837209302326
850	1940136	341.350514669264	0.97701149425287
850	1940343	341.374868156672	0.98850574712644
850	1954591	343.864482502503	0.97727272727273
850	1955037	343.893395989911	0.98863636363636
850	1974277	347.616051782729	0.97752808988764
850	1974471	347.638485270137	0.98876404494382
850	1981662	348.847940761585	0.97777777777778
850	1981914	348.872294248993	0.98888888888889
850	1985631	349.520839940368	0.97802197802198
850	1985826	349.542633427776	0.98901098901099
850	1989729	350.720353503153	0.97826086956522
850	1989924	350.741826990561	0.98913043478261
850	2012628	354.166200178242	0.97849462365591
850	2013115	354.19447366565	0.98924731182796
850	2018610	355.497061861477	0.97872340425532
850	2018805	355.520455348885	0.98936170212766
850	2024295	356.706862857031	0.97894736842105
850	2024503	356.729616344439	0.98947368421053
850	2027008	357.11321250464	0.97916666666667
850	2027214	357.132765992048	0.98958333333333
850	2042211	360.225102840473	0.97938144329897
850	2042578	360.244976327881	0.98969072164948
850	2043072	360.403405280285	0.97959183673469
850	2043370	360.423918767693	0.98979591836735
850	2050239	361.495830552334	0.97979797979798
850	2050928	361.523000039742	0.98989898989899
850	2055886	362.420567315794	0.98
850	2056435	362.456280803202	0.99
860	959518	170.944485576956	76
860	980096	174.284113098171	76
860	987044	175.349157765066	76
860	999016	177.394557397244	76
860	1005962	178.526287378548	76
860	1013219	179.871402092822	76
860	1030144	182.888030692277	76
860	1049693	187.340158333799	76
860	1052676	187.915018678647	76
860	1068045	190.639163815692	76
860	1069345	190.977013008295	76
860	1084964	193.550462925114	76
860	1085296	193.589998786315	76
860	1088294	194.061352017023	76
860	1130447	201.061723558634	76
860	1160414	206.10477592903	76
860	1175072	209.481897988312	76
860	1176076	209.638276935118	76
860	1176558	209.76336938329	76
860	1182594	210.831239697891	76
860	1192663	212.178990287373	76
860	1194741	212.557771752681	76
860	1230824	218.367053701292	76
860	1235652	219.475155872744	76
860	1250486	222.007681196008	76
860	1262483	224.106516738545	76
860	1292958	229.441489930528	76
860	1320731	234.471548138165	76
860	1325250	235.356190077418	76
860	1331481	236.616461421849	76
860	1333637	236.956310405503	76
860	1333920	237.06031239037	76
860	1352629	240.815434645495	76
860	1356493	241.47766698485	76
860	1363868	242.485720739345	76
860	1368845	243.265953015955	76
860	1376595	244.568975932827	76
860	1377820	244.810974171226	76
860	1398570	248.86766112287	76
860	1407431	250.140341284741	76
860	1408086	250.209045307018	76
860	1417836	251.732861929165	76
860	1427942	253.451180207575	76
860	1455473	258.120061201917	76
860	1458088	258.825006266007	76
860	1459423	258.99449658623	76
860	1471913	261.279886860997	76
860	1489044	264.365779495478	76
860	1495226	265.26296752316	76
860	1499215	265.858909933519	76
860	1537741	272.98537747211	76
860	1538998	273.120451589344	76
860	1572023	278.727767767316	76
860	1576358	279.354708601837	76
860	1596938	283.081948170736	76
860	1612175	285.774580461638	76
860	1613273	285.953042956412	76
860	1627223	287.847220146085	76
860	1640341	290.190922311818	76
860	1660516	293.490441400512	76
860	1684410	298.207897952347	76
860	1687606	298.754097460953	76
860	1695868	300.039193452045	76
860	1699654	300.885194338992	76
860	1705807	302.134499390056	76
860	1709147	302.553970054919	76
860	1726343	305.321665165759	76
860	1735220	306.687080772392	76
860	1736497	306.867187352123	76
860	1740268	307.312796222039	76
860	1785651	315.266947198246	76
860	1806181	319.568443958043	76
860	1809453	320.041295251075	76
860	1814189	320.693227701604	76
860	1819928	321.496760875727	76
860	1824675	322.398021711818	76
860	1829708	323.294865473397	76
860	1841803	325.194348726805	76
860	1900627	334.955302411957	76
860	1925660	338.916296680015	76
860	1951408	343.364740927485	76
860	1975403	347.829143555541	76
860	1983971	349.235761355073	76
860	1994502	351.461176492586	76
860	1999050	352.143702017958	76
860	1999569	352.171586107202	76
860	2010332	353.834184330662	76
860	2015659	354.734252320099	76
860	2022894	356.392436417741	76
860	2032958	358.194881385048	76
860	2045170	360.65954055597	76
860	2045670	360.812507664618	76
860	2055568	362.387893930126	76
860	2072643	366.151488410539	76
860	2087001	368.832605817269	76
860	2097423	370.829991645908	76
860	2099277	371.110632265501	76
860	2117048	374.290888150931	76
860	2123153	375.20268226401	76
860	2146273	379.576488216881	76
862	959716	170.967239034168	76
862	980428	174.309506555383	76
862	987949	175.384311222278	76
862	999212	177.415070854456	76
862	1006160	178.54808083576	76
862	1013417	179.892875550034	76
862	1030368	182.909824149489	76
862	1050018	187.364511791011	76
862	1052962	187.938732135859	76
862	1068267	190.661597272904	76
862	1069543	190.999126465507	76
862	1085258	193.571936382326	76
862	1085494	193.613392243527	76
862	1088491	194.081545474235	76
862	1130887	201.082237015846	76
862	1160615	206.126249386242	76
862	1175485	209.510491445524	76
862	1176278	209.65943039233	76
862	1176756	209.787082840502	76
862	1182796	210.850473155103	76
862	1193084	212.202063744585	76
862	1195021	212.580205209893	76
862	1231136	218.388527158504	76
862	1235896	219.496309329956	76
862	1250759	222.02947465322	76
862	1262680	224.126070195757	76
862	1293156	229.46424338774	76
862	1321128	234.495581595377	76
862	1325452	235.37862353463	76
862	1331922	236.644142879061	76
862	1333882	236.978743862715	76
862	1334117	237.079545847582	76
862	1352825	240.834668102707	76
862	1356840	241.501700442062	76
862	1364129	242.507194196557	76
862	1369043	243.290306473167	76
862	1376918	244.592369390039	76
862	1378619	244.851503628438	76
862	1399028	248.889134580082	76
862	1407638	250.160534741953	76
862	1408386	250.23115876423	76
862	1418212	251.753695386377	76
862	1428140	253.474253664787	76
862	1455771	258.143134659129	76
862	1458286	258.849359723219	76
862	1459672	259.015650043442	76
862	1472111	261.302000318209	76
862	1489419	264.39154095269	76
862	1495426	265.288280980372	76
862	1500037	265.892063390731	76
862	1537938	273.005250929322	76
862	1539342	273.143525046556	76
862	1572231	278.751801224528	76
862	1576554	279.373622059049	76
862	1597311	283.103741627948	76
862	1612553	285.80093391885	76
862	1613469	285.971636413624	76
862	1627584	287.867733603297	76
862	1640655	290.21271576903	76
862	1660717	293.511594857724	76
862	1684726	298.230651409559	76
862	1687890	298.775890918165	76
862	1696068	300.060666909257	76
862	1699856	300.907947796204	76
862	1706098	302.155012847268	76
862	1709415	302.578003512131	76
862	1726638	305.342178622971	76
862	1735557	306.707274229604	76
862	1737097	306.897188809335	76
862	1741002	307.346909679251	76
862	1785926	315.290660655458	76
862	1806495	319.590877415255	76
862	1809745	320.061488708287	76
862	1814413	320.716941158816	76
862	1820252	321.516954332939	76
862	1825010	322.42565516903	76
862	1842050	325.215822184017	76
862	1900957	334.976455869169	76
862	1926113	338.940330137227	76
862	1951656	343.385894384697	76
862	1975603	347.848377012753	76
862	1984538	349.265714812285	76
862	1995557	351.507465949798	76
862	1999511	352.16805547517	76
862	2000112	352.206644231542	76
862	2011145	353.869897787874	76
862	2015924	354.757645777311	76
862	2023138	356.412309874953	76
862	2033239	358.21795484226	76
862	2045542	360.682294013182	76
862	2045867	360.83526112183	76
862	2055800	362.408727387338	76
862	2072842	366.176481867751	76
862	2087524	368.865295274481	76
862	2097746	370.85114510312	76
862	2100148	371.170393722713	76
862	2117246	374.312041608143	76
862	2123480	375.223835721222	76
862	2146807	379.602521674093	76
863	62	1	76
863	247	3.35865343322	76
863	273	3.908973640738	76
863	392	5.594332810831	76
863	470	7.364588239201	76
863	38149	13.994488876174	76
863	39890	14.312253675839	76
863	87844	20.193061953541	76
863	100367	22.409012538362	76
863	111354	24.156072506539	76
863	111388	24.156837326892	76
863	133070	27.981940379897	76
863	135390	28.405135428246	76
863	161988	33.419434840039	76
863	171122	34.828183745294	76
863	179584	36.402022413023	76
863	184738	37.218298133086	76
863	202280	40.443085724136	76
863	255227	49.505062298405	76
863	261467	50.952566868775	76
863	265685	51.698442793258	76
863	272936	52.818354175418	76
863	277056	53.300170356525	76
863	281467	54.043184314686	76
863	382174	71.646754877122	76
863	396187	74.171018543047	76
863	401448	74.942140455547	76
863	402105	74.999787239679	76
863	422271	78.686289215215	76
863	430468	79.787595521794	76
863	452218	83.730035974927	76
863	456665	84.476257327689	76
863	457664	84.686580882088	76
863	473134	87.451413514734	76
863	485720	89.758264850984	76
863	494951	91.473696226577	76
863	518080	95.229126988541	76
863	530462	97.715536539679	76
863	532621	98.154408309535	76
863	541308	100.000061219497	76
863	555651	101.915762482196	76
863	601570	109.140113427109	76
863	624586	112.766982714002	76
863	625384	112.98715261635	76
863	650896	117.26016175034	76
863	653269	117.516266291122	76
863	659424	118.527181145423	76
863	689422	123.932830424663	76
863	727135	130.113613493557	76
863	737347	131.339115457571	76
863	740617	132.134247956375	76
863	776177	137.999749993362	76
863	784692	139.448453663491	76
863	791419	140.61094537293	76
863	807219	143.534301772742	76
863	810742	144.048141301559	76
863	826960	146.587991979588	76
863	833594	147.988400514662	76
863	838498	148.770597209846	76
863	842240	149.514208209424	76
863	885932	158.065083139937	76
863	904201	160.758691176885	76
863	2156933	381.072440795809	76
863	2176790	384.118873459936	76
863	2185465	385.912790193136	76
863	2213134	391.350728931988	76
863	2253832	398.503193490411	76
863	2255102	398.763281441388	76
863	2256223	398.964314161119	76
863	2272342	401.565025363039	76
863	2283705	403.260913264866	76
863	2303009	406.20657332136	76
863	2330933	411.046804211572	76
863	2363846	416.436040568724	76
863	2364485	416.504453532591	76
863	2365922	416.698596771689	76
863	2376650	418.172112275676	76
863	2377443	418.313928972328	76
863	2394046	421.132341792596	76
863	2422738	425.136705554611	76
863	2429123	426.36134607191	76
863	2497302	437.365636102187	76
863	2499931	437.903816321111	76
863	2504664	439.068724315003	76
864	959518	170.944485576956	-nan
864	959716	170.967239034168	1
864	980096	174.284113098171	0.5
864	980428	174.309506555383	1
864	987044	175.349157765066	0.66666666666667
864	987949	175.384311222278	1
864	999016	177.394557397244	0.75
864	999212	177.415070854456	1
864	1005962	178.526287378548	0.8
864	1006160	178.54808083576	1
864	1013219	179.871402092822	0.83333333333333
864	1013417	179.892875550034	1
864	1030144	182.888030692277	0.85714285714286
864	1030368	182.909824149489	1
864	1049693	187.340158333799	0.875
864	1050018	187.364511791011	1
864	1052676	187.915018678647	0.88888888888889
864	1052962	187.938732135859	1
864	1068045	190.639163815692	0.9
864	1068267	190.661597272904	1
864	1069345	190.977013008295	0.90909090909091
864	1069543	190.999126465507	1
864	1084964	193.550462925114	0.91666666666667
864	1085258	193.571936382326	1
864	1085296	193.589998786315	0.92307692307692
864	1085494	193.613392243527	1
864	1088294	194.061352017023	0.92857142857143
864	1088491	194.081545474235	1
864	1130447	201.061723558634	0.93333333333333
864	1130887	201.082237015846	1
864	1160414	206.10477592903	0.9375
864	1160615	206.126249386242	1
864	1175072	209.481897988312	0.94117647058824
864	1175485	209.510491445524	1
864	1176076	209.638276935118	0.94444444444444
864	1176278	209.65943039233	1
864	1176558	209.76336938329	0.94736842105263
864	1176756	209.787082840502	1
864	1182594	210.831239697891	0.95
864	1182796	210.850473155103	1
864	1192663	212.178990287373	0.95238095238095
864	1193084	212.202063744585	1
864	1194741	212.557771752681	0.95454545454545
864	1195021	212.580205209893	1
864	1230824	218.367053701292	0.95652173913043
864	1231136	218.388527158504	1
864	1235652	219.475155872744	0.95833333333333
864	1235896	219.496309329956	1
864	1250486	222.007681196008	0.96
864	1250759	222.02947465322	1
864	1262483	224.106516738545	0.96153846153846
864	1262680	224.126070195757	1
864	1292958	229.441489930528	0.96296296296296
864	1293156	229.46424338774	1
864	1320731	234.471548138165	0.96428571428571
864	1321128	234.495581595377	1
864	1325250	235.356190077418	0.96551724137931
864	1325452	235.37862353463	1
864	1331481	236.616461421849	0.96666666666667
864	1331922	236.644142879061	1
864	1333637	236.956310405503	0.96774193548387
864	1333882	236.978743862715	1
864	1333920	237.06031239037	0.96875
864	1334117	237.079545847582	1
864	1352629	240.815434645495	0.96969696969697
864	1352825	240.834668102707	1
864	1356493	241.47766698485	0.97058823529412
864	1356840	241.501700442062	1
864	1363868	242.485720739345	0.97142857142857
864	1364129	242.507194196557	1
864	1368845	243.265953015955	0.97222222222222
864	1369043	243.290306473167	1
864	1376595	244.568975932827	0.97297297297297
864	1376918	244.592369390039	1
864	1377820	244.810974171226	0.97368421052632
864	1378619	244.851503628438	1
864	1398570	248.86766112287	0.97435897435897
864	1399028	248.889134580082	1
864	1407431	250.140341284741	0.975
864	1407638	250.160534741953	1
864	1408086	250.209045307018	0.97560975609756
864	1408386	250.23115876423	1
864	1417836	251.732861929165	0.97619047619048
864	1418212	251.753695386377	1
864	1427942	253.451180207575	0.97674418604651
864	1428140	253.474253664787	1
864	1455473	258.120061201917	0.97727272727273
864	1455771	258.143134659129	1
864	1458088	258.825006266007	0.97777777777778
864	1458286	258.849359723219	1
864	1459423	258.99449658623	0.97826086956522
864	1459672	259.015650043442	1
864	1471913	261.279886860997	0.97872340425532
864	1472111	261.302000318209	1
864	1489044	264.365779495478	0.97916666666667
864	1489419	264.39154095269	1
864	1495226	265.26296752316	0.97959183673469
864	1495426	265.288280980372	1
864	1499215	265.858909933519	0.98
864	1500037	265.892063390731	1
864	1537741	272.98537747211	0.98039215686275
864	1537938	273.005250929322	1
864	1538998	273.120451589344	0.98076923076923
864	1539342	273.143525046556	1
864	1572023	278.727767767316	0.9811320754717
864	1572231	278.751801224528	1
864	1576358	279.354708601837	0.98148148148148
864	1576554	279.373622059049	1
864	1596938	283.081948170736	0.98181818181818
864	1597311	283.103741627948	1
864	1612175	285.774580461638	0.98214285714286
864	1612553	285.80093391885	1
864	1613273	285.953042956412	0.98245614035088
864	1613469	285.971636413624	1
864	1627223	287.847220146085	0.98275862068966
864	1627584	287.867733603297	1
864	1640341	290.190922311818	0.98305084745763
864	1640655	290.21271576903	1
864	1660516	293.490441400512	0.98333333333333
864	1660717	293.511594857724	1
864	1684410	298.207897952347	0.98360655737705
864	1684726	298.230651409559	1
864	1687606	298.754097460953	0.98387096774194
864	1687890	298.775890918165	1
864	1695868	300.039193452045	0.98412698412698
864	1696068	300.060666909257	1
864	1699654	300.885194338992	0.984375
864	1699856	300.907947796204	1
864	1705807	302.134499390056	0.98461538461538
864	1706098	302.155012847268	1
864	1709147	302.553970054919	0.98484848484848
864	1709415	302.578003512131	1
864	1726343	305.321665165759	0.98507462686567
864	1726638	305.342178622971	1
864	1735220	306.687080772392	0.98529411764706
864	1735557	306.707274229604	1
864	1736497	306.867187352123	0.98550724637681
864	1737097	306.897188809335	1
864	1740268	307.312796222039	0.98571428571429
864	1741002	307.346909679251	1
864	1785651	315.266947198246	0.98591549295775
864	1785926	315.290660655458	1
864	1806181	319.568443958043	0.98611111111111
864	1806495	319.590877415255	1
864	1809453	320.041295251075	0.98630136986301
864	1809745	320.061488708287	1
864	1814189	320.693227701604	0.98648648648649
864	1814413	320.716941158816	1
864	1819928	321.496760875727	0.98666666666667
864	1820252	321.516954332939	1
864	1824675	322.398021711818	0.98684210526316
864	1825010	322.42565516903	1
864	1829708	323.294865473397	0.98701298701299
864	1841803	325.194348726805	0.97435897435897
864	1842050	325.215822184017	0.98717948717949
864	1900627	334.955302411957	0.9746835443038
864	1900957	334.976455869169	0.9873417721519
864	1925660	338.916296680015	0.975
864	1926113	338.940330137227	0.9875
864	1951408	343.364740927485	0.97530864197531
864	1951656	343.385894384697	0.98765432098765
864	1975403	347.829143555541	0.97560975609756
864	1975603	347.848377012753	0.98780487804878
864	1983971	349.235761355073	0.97590361445783
864	1984538	349.265714812285	0.98795180722892
864	1994502	351.461176492586	0.97619047619048
864	1995557	351.507465949798	0.98809523809524
864	1999050	352.143702017958	0.97647058823529
864	1999511	352.16805547517	0.98823529411765
864	1999569	352.171586107202	0.97674418604651
864	2000112	352.206644231542	0.98837209302326
864	2010332	353.834184330662	0.97701149425287
864	2011145	353.869897787874	0.98850574712644
864	2015659	354.734252320099	0.97727272727273
864	2015924	354.757645777311	0.98863636363636
864	2022894	356.392436417741	0.97752808988764
864	2023138	356.412309874953	0.98876404494382
864	2032958	358.194881385048	0.97777777777778
864	2033239	358.21795484226	0.98888888888889
864	2045170	360.65954055597	0.97802197802198
864	2045542	360.682294013182	0.98901098901099
864	2045670	360.812507664618	0.97826086956522
864	2045867	360.83526112183	0.98913043478261
864	2055568	362.387893930126	0.97849462365591
864	2055800	362.408727387338	0.98924731182796
864	2072643	366.151488410539	0.97872340425532
864	2072842	366.176481867751	0.98936170212766
864	2087001	368.832605817269	0.97894736842105
864	2087524	368.865295274481	0.98947368421053
864	2097423	370.829991645908	0.97916666666667
864	2097746	370.85114510312	0.98958333333333
864	2099277	371.110632265501	0.97938144329897
864	2100148	371.170393722713	0.98969072164948
864	2117048	374.290888150931	0.97959183673469
864	2117246	374.312041608143	0.98979591836735
864	2123153	375.20268226401	0.97979797979798
864	2123480	375.223835721222	0.98989898989899
864	2146273	379.576488216881	0.98
864	2146807	379.602521674093	0.99
