file 1561892 1471959778                                         
version 2
run CSMA-0-20160823-13:40:10-14494
attr beaconInterval 10s
attr configname CSMA
attr datetime 20160823-13:40:10
attr experiment CSMA
attr inifile simulations/omnetpp.ini
attr iterationvars "$packetLength=76B, $sendInt=2.1, $beaconInterval=10s, $0=10s/2, $1=3 * 10s"
attr iterationvars2 "$packetLength=76B, $sendInt=2.1, $beaconInterval=10s, $0=10s/2, $1=3 * 10s, $repetition=0"
attr measurement "$packetLength=76B, $sendInt=2.1, $beaconInterval=10s, $0=10s/2, $1=3 * 10s"
attr network multi_gateway.Net802154MultiGateway
attr packetLength 76B
attr processid 14494
attr repetition 0
attr replication #0
attr resultdir ../results
attr runnumber 0
attr seedset 0
attr sendInt 2.1
param **.configurator.addStaticRoutes false
param **.dumpRoutes false
param **.dumpTopology false
param **.host[*].**.gpsr.beaconInterval "${beaconInterval = 10s}"
param **.host[*].**.gpsr.maxJitter ${$beaconInterval/2}
param **.host[*].**.gpsr.neighborValidityInterval "${3 * $beaconInterval}"
param **.host[*].**.gpsr.positionByteLength "2 B"
param **.host[*].**.gpsr.routingStrategy "\"StraightestPath\""
param **.host[*].**.trafficgen.continueSendingDummyPackets true
param **.host[*].**.trafficgen.coolDownDuration 15s
param **.host[*].**.trafficgen.destAddresses "\"host[0].wrappedHost(modulepath)\""
param **.host[*].**.trafficgen.packetLength "${packetLength = 76B}"
param **.host[*].**.trafficgen.sendInterval "exponential(${sendInt=0.1..2.5 step 0.2}s)"
param **.host[*].**.trafficgen.warmUpDuration 160s
param **.host[*].**.wlan[*].mac.queueLength 30
param **.host[*].**.wlan[*].macType "\"Ieee802154NarrowbandMac\""
param **.host[*].**.wlan[*].radio.receiver.minInterferencePower "-100 dBm"
param **.host[*].hostType "\"SimpleHost\""
param **.host[*].mobilityType "\"StaticConcentricWrappingMobility\""
param **.host[0].**.trafficgen.numPackets 0
param **.host[1..].**.trafficgen.numPackets 100
param **.numHosts 62
param **.radioMedium.rangeFilter "\"interferenceRange\""
param **.routingTable.addressType "\"modulepath\""
param **.routingTableType "\"GenericRoutingTable\""

vector 9  Net802154MultiGateway.host[0].wrappedHost.trafficgen  sentDummyPk:vector(packetBytes)  ETV
attr interpolationmode  none
attr source  sentDummyPk
attr title  "dummy packets sent, vector(packetBytes)"
vector 23  Net802154MultiGateway.host[1].wrappedHost.trafficgen  sentDummyPk:vector(packetBytes)  ETV
attr interpolationmode  none
attr source  sentDummyPk
attr title  "dummy packets sent, vector(packetBytes)"
vector 37  Net802154MultiGateway.host[2].wrappedHost.trafficgen  sentDummyPk:vector(packetBytes)  ETV
attr interpolationmode  none
attr source  sentDummyPk
attr title  "dummy packets sent, vector(packetBytes)"
vector 51  Net802154MultiGateway.host[3].wrappedHost.trafficgen  sentDummyPk:vector(packetBytes)  ETV
attr interpolationmode  none
attr source  sentDummyPk
attr title  "dummy packets sent, vector(packetBytes)"
vector 65  Net802154MultiGateway.host[4].wrappedHost.trafficgen  sentDummyPk:vector(packetBytes)  ETV
attr interpolationmode  none
attr source  sentDummyPk
attr title  "dummy packets sent, vector(packetBytes)"
vector 79  Net802154MultiGateway.host[5].wrappedHost.trafficgen  sentDummyPk:vector(packetBytes)  ETV
attr interpolationmode  none
attr source  sentDummyPk
attr title  "dummy packets sent, vector(packetBytes)"
vector 93  Net802154MultiGateway.host[6].wrappedHost.trafficgen  sentDummyPk:vector(packetBytes)  ETV
attr interpolationmode  none
attr source  sentDummyPk
attr title  "dummy packets sent, vector(packetBytes)"
vector 107  Net802154MultiGateway.host[7].wrappedHost.trafficgen  sentDummyPk:vector(packetBytes)  ETV
attr interpolationmode  none
attr source  sentDummyPk
attr title  "dummy packets sent, vector(packetBytes)"
vector 121  Net802154MultiGateway.host[8].wrappedHost.trafficgen  sentDummyPk:vector(packetBytes)  ETV
attr interpolationmode  none
attr source  sentDummyPk
attr title  "dummy packets sent, vector(packetBytes)"
vector 135  Net802154MultiGateway.host[9].wrappedHost.trafficgen  sentDummyPk:vector(packetBytes)  ETV
attr interpolationmode  none
attr source  sentDummyPk
attr title  "dummy packets sent, vector(packetBytes)"
vector 149  Net802154MultiGateway.host[10].wrappedHost.trafficgen  sentDummyPk:vector(packetBytes)  ETV
attr interpolationmode  none
attr source  sentDummyPk
attr title  "dummy packets sent, vector(packetBytes)"
vector 163  Net802154MultiGateway.host[11].wrappedHost.trafficgen  sentDummyPk:vector(packetBytes)  ETV
attr interpolationmode  none
attr source  sentDummyPk
attr title  "dummy packets sent, vector(packetBytes)"
vector 177  Net802154MultiGateway.host[12].wrappedHost.trafficgen  sentDummyPk:vector(packetBytes)  ETV
attr interpolationmode  none
attr source  sentDummyPk
attr title  "dummy packets sent, vector(packetBytes)"
vector 191  Net802154MultiGateway.host[13].wrappedHost.trafficgen  sentDummyPk:vector(packetBytes)  ETV
attr interpolationmode  none
attr source  sentDummyPk
attr title  "dummy packets sent, vector(packetBytes)"
vector 205  Net802154MultiGateway.host[14].wrappedHost.trafficgen  sentDummyPk:vector(packetBytes)  ETV
attr interpolationmode  none
attr source  sentDummyPk
attr title  "dummy packets sent, vector(packetBytes)"
vector 219  Net802154MultiGateway.host[15].wrappedHost.trafficgen  sentDummyPk:vector(packetBytes)  ETV
attr interpolationmode  none
attr source  sentDummyPk
attr title  "dummy packets sent, vector(packetBytes)"
vector 233  Net802154MultiGateway.host[16].wrappedHost.trafficgen  sentDummyPk:vector(packetBytes)  ETV
attr interpolationmode  none
attr source  sentDummyPk
attr title  "dummy packets sent, vector(packetBytes)"
vector 247  Net802154MultiGateway.host[17].wrappedHost.trafficgen  sentDummyPk:vector(packetBytes)  ETV
attr interpolationmode  none
attr source  sentDummyPk
attr title  "dummy packets sent, vector(packetBytes)"
vector 261  Net802154MultiGateway.host[18].wrappedHost.trafficgen  sentDummyPk:vector(packetBytes)  ETV
attr interpolationmode  none
attr source  sentDummyPk
attr title  "dummy packets sent, vector(packetBytes)"
vector 275  Net802154MultiGateway.host[19].wrappedHost.trafficgen  sentDummyPk:vector(packetBytes)  ETV
attr interpolationmode  none
attr source  sentDummyPk
attr title  "dummy packets sent, vector(packetBytes)"
vector 289  Net802154MultiGateway.host[20].wrappedHost.trafficgen  sentDummyPk:vector(packetBytes)  ETV
attr interpolationmode  none
attr source  sentDummyPk
attr title  "dummy packets sent, vector(packetBytes)"
vector 303  Net802154MultiGateway.host[21].wrappedHost.trafficgen  sentDummyPk:vector(packetBytes)  ETV
attr interpolationmode  none
attr source  sentDummyPk
attr title  "dummy packets sent, vector(packetBytes)"
vector 317  Net802154MultiGateway.host[22].wrappedHost.trafficgen  sentDummyPk:vector(packetBytes)  ETV
attr interpolationmode  none
attr source  sentDummyPk
attr title  "dummy packets sent, vector(packetBytes)"
vector 331  Net802154MultiGateway.host[23].wrappedHost.trafficgen  sentDummyPk:vector(packetBytes)  ETV
attr interpolationmode  none
attr source  sentDummyPk
attr title  "dummy packets sent, vector(packetBytes)"
vector 345  Net802154MultiGateway.host[24].wrappedHost.trafficgen  sentDummyPk:vector(packetBytes)  ETV
attr interpolationmode  none
attr source  sentDummyPk
attr title  "dummy packets sent, vector(packetBytes)"
vector 359  Net802154MultiGateway.host[25].wrappedHost.trafficgen  sentDummyPk:vector(packetBytes)  ETV
attr interpolationmode  none
attr source  sentDummyPk
attr title  "dummy packets sent, vector(packetBytes)"
vector 373  Net802154MultiGateway.host[26].wrappedHost.trafficgen  sentDummyPk:vector(packetBytes)  ETV
attr interpolationmode  none
attr source  sentDummyPk
attr title  "dummy packets sent, vector(packetBytes)"
vector 387  Net802154MultiGateway.host[27].wrappedHost.trafficgen  sentDummyPk:vector(packetBytes)  ETV
attr interpolationmode  none
attr source  sentDummyPk
attr title  "dummy packets sent, vector(packetBytes)"
vector 401  Net802154MultiGateway.host[28].wrappedHost.trafficgen  sentDummyPk:vector(packetBytes)  ETV
attr interpolationmode  none
attr source  sentDummyPk
attr title  "dummy packets sent, vector(packetBytes)"
vector 415  Net802154MultiGateway.host[29].wrappedHost.trafficgen  sentDummyPk:vector(packetBytes)  ETV
attr interpolationmode  none
attr source  sentDummyPk
attr title  "dummy packets sent, vector(packetBytes)"
vector 429  Net802154MultiGateway.host[30].wrappedHost.trafficgen  sentDummyPk:vector(packetBytes)  ETV
attr interpolationmode  none
attr source  sentDummyPk
attr title  "dummy packets sent, vector(packetBytes)"
vector 443  Net802154MultiGateway.host[31].wrappedHost.trafficgen  sentDummyPk:vector(packetBytes)  ETV
attr interpolationmode  none
attr source  sentDummyPk
attr title  "dummy packets sent, vector(packetBytes)"
vector 457  Net802154MultiGateway.host[32].wrappedHost.trafficgen  sentDummyPk:vector(packetBytes)  ETV
attr interpolationmode  none
attr source  sentDummyPk
attr title  "dummy packets sent, vector(packetBytes)"
vector 471  Net802154MultiGateway.host[33].wrappedHost.trafficgen  sentDummyPk:vector(packetBytes)  ETV
attr interpolationmode  none
attr source  sentDummyPk
attr title  "dummy packets sent, vector(packetBytes)"
vector 485  Net802154MultiGateway.host[34].wrappedHost.trafficgen  sentDummyPk:vector(packetBytes)  ETV
attr interpolationmode  none
attr source  sentDummyPk
attr title  "dummy packets sent, vector(packetBytes)"
vector 499  Net802154MultiGateway.host[35].wrappedHost.trafficgen  sentDummyPk:vector(packetBytes)  ETV
attr interpolationmode  none
attr source  sentDummyPk
attr title  "dummy packets sent, vector(packetBytes)"
vector 513  Net802154MultiGateway.host[36].wrappedHost.trafficgen  sentDummyPk:vector(packetBytes)  ETV
attr interpolationmode  none
attr source  sentDummyPk
attr title  "dummy packets sent, vector(packetBytes)"
vector 527  Net802154MultiGateway.host[37].wrappedHost.trafficgen  sentDummyPk:vector(packetBytes)  ETV
attr interpolationmode  none
attr source  sentDummyPk
attr title  "dummy packets sent, vector(packetBytes)"
vector 541  Net802154MultiGateway.host[38].wrappedHost.trafficgen  sentDummyPk:vector(packetBytes)  ETV
attr interpolationmode  none
attr source  sentDummyPk
attr title  "dummy packets sent, vector(packetBytes)"
vector 555  Net802154MultiGateway.host[39].wrappedHost.trafficgen  sentDummyPk:vector(packetBytes)  ETV
attr interpolationmode  none
attr source  sentDummyPk
attr title  "dummy packets sent, vector(packetBytes)"
vector 569  Net802154MultiGateway.host[40].wrappedHost.trafficgen  sentDummyPk:vector(packetBytes)  ETV
attr interpolationmode  none
attr source  sentDummyPk
attr title  "dummy packets sent, vector(packetBytes)"
vector 583  Net802154MultiGateway.host[41].wrappedHost.trafficgen  sentDummyPk:vector(packetBytes)  ETV
attr interpolationmode  none
attr source  sentDummyPk
attr title  "dummy packets sent, vector(packetBytes)"
vector 597  Net802154MultiGateway.host[42].wrappedHost.trafficgen  sentDummyPk:vector(packetBytes)  ETV
attr interpolationmode  none
attr source  sentDummyPk
attr title  "dummy packets sent, vector(packetBytes)"
vector 611  Net802154MultiGateway.host[43].wrappedHost.trafficgen  sentDummyPk:vector(packetBytes)  ETV
attr interpolationmode  none
attr source  sentDummyPk
attr title  "dummy packets sent, vector(packetBytes)"
vector 625  Net802154MultiGateway.host[44].wrappedHost.trafficgen  sentDummyPk:vector(packetBytes)  ETV
attr interpolationmode  none
attr source  sentDummyPk
attr title  "dummy packets sent, vector(packetBytes)"
vector 639  Net802154MultiGateway.host[45].wrappedHost.trafficgen  sentDummyPk:vector(packetBytes)  ETV
attr interpolationmode  none
attr source  sentDummyPk
attr title  "dummy packets sent, vector(packetBytes)"
vector 653  Net802154MultiGateway.host[46].wrappedHost.trafficgen  sentDummyPk:vector(packetBytes)  ETV
attr interpolationmode  none
attr source  sentDummyPk
attr title  "dummy packets sent, vector(packetBytes)"
vector 667  Net802154MultiGateway.host[47].wrappedHost.trafficgen  sentDummyPk:vector(packetBytes)  ETV
attr interpolationmode  none
attr source  sentDummyPk
attr title  "dummy packets sent, vector(packetBytes)"
vector 681  Net802154MultiGateway.host[48].wrappedHost.trafficgen  sentDummyPk:vector(packetBytes)  ETV
attr interpolationmode  none
attr source  sentDummyPk
attr title  "dummy packets sent, vector(packetBytes)"
vector 695  Net802154MultiGateway.host[49].wrappedHost.trafficgen  sentDummyPk:vector(packetBytes)  ETV
attr interpolationmode  none
attr source  sentDummyPk
attr title  "dummy packets sent, vector(packetBytes)"
vector 709  Net802154MultiGateway.host[50].wrappedHost.trafficgen  sentDummyPk:vector(packetBytes)  ETV
attr interpolationmode  none
attr source  sentDummyPk
attr title  "dummy packets sent, vector(packetBytes)"
vector 723  Net802154MultiGateway.host[51].wrappedHost.trafficgen  sentDummyPk:vector(packetBytes)  ETV
attr interpolationmode  none
attr source  sentDummyPk
attr title  "dummy packets sent, vector(packetBytes)"
vector 737  Net802154MultiGateway.host[52].wrappedHost.trafficgen  sentDummyPk:vector(packetBytes)  ETV
attr interpolationmode  none
attr source  sentDummyPk
attr title  "dummy packets sent, vector(packetBytes)"
vector 751  Net802154MultiGateway.host[53].wrappedHost.trafficgen  sentDummyPk:vector(packetBytes)  ETV
attr interpolationmode  none
attr source  sentDummyPk
attr title  "dummy packets sent, vector(packetBytes)"
vector 765  Net802154MultiGateway.host[54].wrappedHost.trafficgen  sentDummyPk:vector(packetBytes)  ETV
attr interpolationmode  none
attr source  sentDummyPk
attr title  "dummy packets sent, vector(packetBytes)"
vector 779  Net802154MultiGateway.host[55].wrappedHost.trafficgen  sentDummyPk:vector(packetBytes)  ETV
attr interpolationmode  none
attr source  sentDummyPk
attr title  "dummy packets sent, vector(packetBytes)"
vector 793  Net802154MultiGateway.host[56].wrappedHost.trafficgen  sentDummyPk:vector(packetBytes)  ETV
attr interpolationmode  none
attr source  sentDummyPk
attr title  "dummy packets sent, vector(packetBytes)"
vector 807  Net802154MultiGateway.host[57].wrappedHost.trafficgen  sentDummyPk:vector(packetBytes)  ETV
attr interpolationmode  none
attr source  sentDummyPk
attr title  "dummy packets sent, vector(packetBytes)"
vector 821  Net802154MultiGateway.host[58].wrappedHost.trafficgen  sentDummyPk:vector(packetBytes)  ETV
attr interpolationmode  none
attr source  sentDummyPk
attr title  "dummy packets sent, vector(packetBytes)"
vector 835  Net802154MultiGateway.host[59].wrappedHost.trafficgen  sentDummyPk:vector(packetBytes)  ETV
attr interpolationmode  none
attr source  sentDummyPk
attr title  "dummy packets sent, vector(packetBytes)"
vector 849  Net802154MultiGateway.host[60].wrappedHost.trafficgen  sentDummyPk:vector(packetBytes)  ETV
attr interpolationmode  none
attr source  sentDummyPk
attr title  "dummy packets sent, vector(packetBytes)"
vector 863  Net802154MultiGateway.host[61].wrappedHost.trafficgen  sentDummyPk:vector(packetBytes)  ETV
attr interpolationmode  none
attr source  sentDummyPk
attr title  "dummy packets sent, vector(packetBytes)"
vector 412  Net802154MultiGateway.host[29].wrappedHost.trafficgen  sentPk:vector(packetBytes)  ETV
attr interpolationmode  none
attr source  sentPk
attr title  "packets sent, vector(packetBytes)"
vector 416  Net802154MultiGateway.host[29].wrappedHost.trafficgen  PRR:vector  ETV
attr interpolationmode  none
attr source  count(sinkRcvdPk)/count(sentPk)
attr title  "PRR, vector"
vector 414  Net802154MultiGateway.host[29].wrappedHost.trafficgen  sinkRcvdPk:vector(packetBytes)  ETV
attr interpolationmode  none
attr source  sinkRcvdPk
attr title  "own packets received by sink, vector(packetBytes)"
vector 5  Net802154MultiGateway.host[0].wrappedHost.trafficgen  rcvdPk:vector(packetBytes)  ETV
attr interpolationmode  none
attr source  rcvdPk
attr title  "packets received, vector(packetBytes)"
vector 7  Net802154MultiGateway.host[0].wrappedHost.trafficgen  endToEndDelay:vector  ETV
attr interpolationmode  none
attr source  messageAge(rcvdPk)
attr title  "end-to-end delay, vector"
attr unit  s
vector 846  Net802154MultiGateway.host[60].wrappedHost.trafficgen  sentPk:vector(packetBytes)  ETV
attr interpolationmode  none
attr source  sentPk
attr title  "packets sent, vector(packetBytes)"
vector 850  Net802154MultiGateway.host[60].wrappedHost.trafficgen  PRR:vector  ETV
attr interpolationmode  none
attr source  count(sinkRcvdPk)/count(sentPk)
attr title  "PRR, vector"
vector 566  Net802154MultiGateway.host[40].wrappedHost.trafficgen  sentPk:vector(packetBytes)  ETV
attr interpolationmode  none
attr source  sentPk
attr title  "packets sent, vector(packetBytes)"
vector 570  Net802154MultiGateway.host[40].wrappedHost.trafficgen  PRR:vector  ETV
attr interpolationmode  none
attr source  count(sinkRcvdPk)/count(sentPk)
attr title  "PRR, vector"
vector 62  Net802154MultiGateway.host[4].wrappedHost.trafficgen  sentPk:vector(packetBytes)  ETV
attr interpolationmode  none
attr source  sentPk
attr title  "packets sent, vector(packetBytes)"
vector 66  Net802154MultiGateway.host[4].wrappedHost.trafficgen  PRR:vector  ETV
attr interpolationmode  none
attr source  count(sinkRcvdPk)/count(sentPk)
attr title  "PRR, vector"
vector 64  Net802154MultiGateway.host[4].wrappedHost.trafficgen  sinkRcvdPk:vector(packetBytes)  ETV
attr interpolationmode  none
attr source  sinkRcvdPk
attr title  "own packets received by sink, vector(packetBytes)"
vector 568  Net802154MultiGateway.host[40].wrappedHost.trafficgen  sinkRcvdPk:vector(packetBytes)  ETV
attr interpolationmode  none
attr source  sinkRcvdPk
attr title  "own packets received by sink, vector(packetBytes)"
vector 706  Net802154MultiGateway.host[50].wrappedHost.trafficgen  sentPk:vector(packetBytes)  ETV
attr interpolationmode  none
attr source  sentPk
attr title  "packets sent, vector(packetBytes)"
vector 710  Net802154MultiGateway.host[50].wrappedHost.trafficgen  PRR:vector  ETV
attr interpolationmode  none
attr source  count(sinkRcvdPk)/count(sentPk)
attr title  "PRR, vector"
vector 848  Net802154MultiGateway.host[60].wrappedHost.trafficgen  sinkRcvdPk:vector(packetBytes)  ETV
attr interpolationmode  none
attr source  sinkRcvdPk
attr title  "own packets received by sink, vector(packetBytes)"
vector 804  Net802154MultiGateway.host[57].wrappedHost.trafficgen  sentPk:vector(packetBytes)  ETV
attr interpolationmode  none
attr source  sentPk
attr title  "packets sent, vector(packetBytes)"
vector 808  Net802154MultiGateway.host[57].wrappedHost.trafficgen  PRR:vector  ETV
attr interpolationmode  none
attr source  count(sinkRcvdPk)/count(sentPk)
attr title  "PRR, vector"
vector 708  Net802154MultiGateway.host[50].wrappedHost.trafficgen  sinkRcvdPk:vector(packetBytes)  ETV
attr interpolationmode  none
attr source  sinkRcvdPk
attr title  "own packets received by sink, vector(packetBytes)"
vector 806  Net802154MultiGateway.host[57].wrappedHost.trafficgen  sinkRcvdPk:vector(packetBytes)  ETV
attr interpolationmode  none
attr source  sinkRcvdPk
attr title  "own packets received by sink, vector(packetBytes)"
vector 440  Net802154MultiGateway.host[31].wrappedHost.trafficgen  sentPk:vector(packetBytes)  ETV
attr interpolationmode  none
attr source  sentPk
attr title  "packets sent, vector(packetBytes)"
vector 444  Net802154MultiGateway.host[31].wrappedHost.trafficgen  PRR:vector  ETV
attr interpolationmode  none
attr source  count(sinkRcvdPk)/count(sentPk)
attr title  "PRR, vector"
vector 370  Net802154MultiGateway.host[26].wrappedHost.trafficgen  sentPk:vector(packetBytes)  ETV
attr interpolationmode  none
attr source  sentPk
attr title  "packets sent, vector(packetBytes)"
vector 374  Net802154MultiGateway.host[26].wrappedHost.trafficgen  PRR:vector  ETV
attr interpolationmode  none
attr source  count(sinkRcvdPk)/count(sentPk)
attr title  "PRR, vector"
vector 442  Net802154MultiGateway.host[31].wrappedHost.trafficgen  sinkRcvdPk:vector(packetBytes)  ETV
attr interpolationmode  none
attr source  sinkRcvdPk
attr title  "own packets received by sink, vector(packetBytes)"
vector 372  Net802154MultiGateway.host[26].wrappedHost.trafficgen  sinkRcvdPk:vector(packetBytes)  ETV
attr interpolationmode  none
attr source  sinkRcvdPk
attr title  "own packets received by sink, vector(packetBytes)"
vector 818  Net802154MultiGateway.host[58].wrappedHost.trafficgen  sentPk:vector(packetBytes)  ETV
attr interpolationmode  none
attr source  sentPk
attr title  "packets sent, vector(packetBytes)"
vector 822  Net802154MultiGateway.host[58].wrappedHost.trafficgen  PRR:vector  ETV
attr interpolationmode  none
attr source  count(sinkRcvdPk)/count(sentPk)
attr title  "PRR, vector"
vector 820  Net802154MultiGateway.host[58].wrappedHost.trafficgen  sinkRcvdPk:vector(packetBytes)  ETV
attr interpolationmode  none
attr source  sinkRcvdPk
attr title  "own packets received by sink, vector(packetBytes)"
vector 790  Net802154MultiGateway.host[56].wrappedHost.trafficgen  sentPk:vector(packetBytes)  ETV
attr interpolationmode  none
attr source  sentPk
attr title  "packets sent, vector(packetBytes)"
vector 794  Net802154MultiGateway.host[56].wrappedHost.trafficgen  PRR:vector  ETV
attr interpolationmode  none
attr source  count(sinkRcvdPk)/count(sentPk)
attr title  "PRR, vector"
vector 160  Net802154MultiGateway.host[11].wrappedHost.trafficgen  sentPk:vector(packetBytes)  ETV
attr interpolationmode  none
attr source  sentPk
attr title  "packets sent, vector(packetBytes)"
vector 164  Net802154MultiGateway.host[11].wrappedHost.trafficgen  PRR:vector  ETV
attr interpolationmode  none
attr source  count(sinkRcvdPk)/count(sentPk)
attr title  "PRR, vector"
vector 792  Net802154MultiGateway.host[56].wrappedHost.trafficgen  sinkRcvdPk:vector(packetBytes)  ETV
attr interpolationmode  none
attr source  sinkRcvdPk
attr title  "own packets received by sink, vector(packetBytes)"
vector 162  Net802154MultiGateway.host[11].wrappedHost.trafficgen  sinkRcvdPk:vector(packetBytes)  ETV
attr interpolationmode  none
attr source  sinkRcvdPk
attr title  "own packets received by sink, vector(packetBytes)"
vector 678  Net802154MultiGateway.host[48].wrappedHost.trafficgen  sentPk:vector(packetBytes)  ETV
attr interpolationmode  none
attr source  sentPk
attr title  "packets sent, vector(packetBytes)"
vector 682  Net802154MultiGateway.host[48].wrappedHost.trafficgen  PRR:vector  ETV
attr interpolationmode  none
attr source  count(sinkRcvdPk)/count(sentPk)
attr title  "PRR, vector"
vector 680  Net802154MultiGateway.host[48].wrappedHost.trafficgen  sinkRcvdPk:vector(packetBytes)  ETV
attr interpolationmode  none
attr source  sinkRcvdPk
attr title  "own packets received by sink, vector(packetBytes)"
vector 230  Net802154MultiGateway.host[16].wrappedHost.trafficgen  sentPk:vector(packetBytes)  ETV
attr interpolationmode  none
attr source  sentPk
attr title  "packets sent, vector(packetBytes)"
vector 234  Net802154MultiGateway.host[16].wrappedHost.trafficgen  PRR:vector  ETV
attr interpolationmode  none
attr source  count(sinkRcvdPk)/count(sentPk)
attr title  "PRR, vector"
vector 232  Net802154MultiGateway.host[16].wrappedHost.trafficgen  sinkRcvdPk:vector(packetBytes)  ETV
attr interpolationmode  none
attr source  sinkRcvdPk
attr title  "own packets received by sink, vector(packetBytes)"
vector 594  Net802154MultiGateway.host[42].wrappedHost.trafficgen  sentPk:vector(packetBytes)  ETV
attr interpolationmode  none
attr source  sentPk
attr title  "packets sent, vector(packetBytes)"
vector 598  Net802154MultiGateway.host[42].wrappedHost.trafficgen  PRR:vector  ETV
attr interpolationmode  none
attr source  count(sinkRcvdPk)/count(sentPk)
attr title  "PRR, vector"
vector 596  Net802154MultiGateway.host[42].wrappedHost.trafficgen  sinkRcvdPk:vector(packetBytes)  ETV
attr interpolationmode  none
attr source  sinkRcvdPk
attr title  "own packets received by sink, vector(packetBytes)"
vector 300  Net802154MultiGateway.host[21].wrappedHost.trafficgen  sentPk:vector(packetBytes)  ETV
attr interpolationmode  none
attr source  sentPk
attr title  "packets sent, vector(packetBytes)"
vector 304  Net802154MultiGateway.host[21].wrappedHost.trafficgen  PRR:vector  ETV
attr interpolationmode  none
attr source  count(sinkRcvdPk)/count(sentPk)
attr title  "PRR, vector"
vector 468  Net802154MultiGateway.host[33].wrappedHost.trafficgen  sentPk:vector(packetBytes)  ETV
attr interpolationmode  none
attr source  sentPk
attr title  "packets sent, vector(packetBytes)"
vector 472  Net802154MultiGateway.host[33].wrappedHost.trafficgen  PRR:vector  ETV
attr interpolationmode  none
attr source  count(sinkRcvdPk)/count(sentPk)
attr title  "PRR, vector"
vector 302  Net802154MultiGateway.host[21].wrappedHost.trafficgen  sinkRcvdPk:vector(packetBytes)  ETV
attr interpolationmode  none
attr source  sinkRcvdPk
attr title  "own packets received by sink, vector(packetBytes)"
vector 748  Net802154MultiGateway.host[53].wrappedHost.trafficgen  sentPk:vector(packetBytes)  ETV
attr interpolationmode  none
attr source  sentPk
attr title  "packets sent, vector(packetBytes)"
vector 752  Net802154MultiGateway.host[53].wrappedHost.trafficgen  PRR:vector  ETV
attr interpolationmode  none
attr source  count(sinkRcvdPk)/count(sentPk)
attr title  "PRR, vector"
vector 470  Net802154MultiGateway.host[33].wrappedHost.trafficgen  sinkRcvdPk:vector(packetBytes)  ETV
attr interpolationmode  none
attr source  sinkRcvdPk
attr title  "own packets received by sink, vector(packetBytes)"
vector 146  Net802154MultiGateway.host[10].wrappedHost.trafficgen  sentPk:vector(packetBytes)  ETV
attr interpolationmode  none
attr source  sentPk
attr title  "packets sent, vector(packetBytes)"
vector 150  Net802154MultiGateway.host[10].wrappedHost.trafficgen  PRR:vector  ETV
attr interpolationmode  none
attr source  count(sinkRcvdPk)/count(sentPk)
attr title  "PRR, vector"
vector 148  Net802154MultiGateway.host[10].wrappedHost.trafficgen  sinkRcvdPk:vector(packetBytes)  ETV
attr interpolationmode  none
attr source  sinkRcvdPk
attr title  "own packets received by sink, vector(packetBytes)"
vector 398  Net802154MultiGateway.host[28].wrappedHost.trafficgen  sentPk:vector(packetBytes)  ETV
attr interpolationmode  none
attr source  sentPk
attr title  "packets sent, vector(packetBytes)"
vector 402  Net802154MultiGateway.host[28].wrappedHost.trafficgen  PRR:vector  ETV
attr interpolationmode  none
attr source  count(sinkRcvdPk)/count(sentPk)
attr title  "PRR, vector"
vector 750  Net802154MultiGateway.host[53].wrappedHost.trafficgen  sinkRcvdPk:vector(packetBytes)  ETV
attr interpolationmode  none
attr source  sinkRcvdPk
attr title  "own packets received by sink, vector(packetBytes)"
vector 400  Net802154MultiGateway.host[28].wrappedHost.trafficgen  sinkRcvdPk:vector(packetBytes)  ETV
attr interpolationmode  none
attr source  sinkRcvdPk
attr title  "own packets received by sink, vector(packetBytes)"
vector 832  Net802154MultiGateway.host[59].wrappedHost.trafficgen  sentPk:vector(packetBytes)  ETV
attr interpolationmode  none
attr source  sentPk
attr title  "packets sent, vector(packetBytes)"
vector 836  Net802154MultiGateway.host[59].wrappedHost.trafficgen  PRR:vector  ETV
attr interpolationmode  none
attr source  count(sinkRcvdPk)/count(sentPk)
attr title  "PRR, vector"
vector 834  Net802154MultiGateway.host[59].wrappedHost.trafficgen  sinkRcvdPk:vector(packetBytes)  ETV
attr interpolationmode  none
attr source  sinkRcvdPk
attr title  "own packets received by sink, vector(packetBytes)"
vector 76  Net802154MultiGateway.host[5].wrappedHost.trafficgen  sentPk:vector(packetBytes)  ETV
attr interpolationmode  none
attr source  sentPk
attr title  "packets sent, vector(packetBytes)"
vector 80  Net802154MultiGateway.host[5].wrappedHost.trafficgen  PRR:vector  ETV
attr interpolationmode  none
attr source  count(sinkRcvdPk)/count(sentPk)
attr title  "PRR, vector"
vector 78  Net802154MultiGateway.host[5].wrappedHost.trafficgen  sinkRcvdPk:vector(packetBytes)  ETV
attr interpolationmode  none
attr source  sinkRcvdPk
attr title  "own packets received by sink, vector(packetBytes)"
vector 90  Net802154MultiGateway.host[6].wrappedHost.trafficgen  sentPk:vector(packetBytes)  ETV
attr interpolationmode  none
attr source  sentPk
attr title  "packets sent, vector(packetBytes)"
vector 94  Net802154MultiGateway.host[6].wrappedHost.trafficgen  PRR:vector  ETV
attr interpolationmode  none
attr source  count(sinkRcvdPk)/count(sentPk)
attr title  "PRR, vector"
vector 92  Net802154MultiGateway.host[6].wrappedHost.trafficgen  sinkRcvdPk:vector(packetBytes)  ETV
attr interpolationmode  none
attr source  sinkRcvdPk
attr title  "own packets received by sink, vector(packetBytes)"
vector 664  Net802154MultiGateway.host[47].wrappedHost.trafficgen  sentPk:vector(packetBytes)  ETV
attr interpolationmode  none
attr source  sentPk
attr title  "packets sent, vector(packetBytes)"
vector 668  Net802154MultiGateway.host[47].wrappedHost.trafficgen  PRR:vector  ETV
attr interpolationmode  none
attr source  count(sinkRcvdPk)/count(sentPk)
attr title  "PRR, vector"
vector 666  Net802154MultiGateway.host[47].wrappedHost.trafficgen  sinkRcvdPk:vector(packetBytes)  ETV
attr interpolationmode  none
attr source  sinkRcvdPk
attr title  "own packets received by sink, vector(packetBytes)"
vector 174  Net802154MultiGateway.host[12].wrappedHost.trafficgen  sentPk:vector(packetBytes)  ETV
attr interpolationmode  none
attr source  sentPk
attr title  "packets sent, vector(packetBytes)"
vector 178  Net802154MultiGateway.host[12].wrappedHost.trafficgen  PRR:vector  ETV
attr interpolationmode  none
attr source  count(sinkRcvdPk)/count(sentPk)
attr title  "PRR, vector"
vector 176  Net802154MultiGateway.host[12].wrappedHost.trafficgen  sinkRcvdPk:vector(packetBytes)  ETV
attr interpolationmode  none
attr source  sinkRcvdPk
attr title  "own packets received by sink, vector(packetBytes)"
vector 272  Net802154MultiGateway.host[19].wrappedHost.trafficgen  sentPk:vector(packetBytes)  ETV
attr interpolationmode  none
attr source  sentPk
attr title  "packets sent, vector(packetBytes)"
vector 276  Net802154MultiGateway.host[19].wrappedHost.trafficgen  PRR:vector  ETV
attr interpolationmode  none
attr source  count(sinkRcvdPk)/count(sentPk)
attr title  "PRR, vector"
vector 274  Net802154MultiGateway.host[19].wrappedHost.trafficgen  sinkRcvdPk:vector(packetBytes)  ETV
attr interpolationmode  none
attr source  sinkRcvdPk
attr title  "own packets received by sink, vector(packetBytes)"
vector 496  Net802154MultiGateway.host[35].wrappedHost.trafficgen  sentPk:vector(packetBytes)  ETV
attr interpolationmode  none
attr source  sentPk
attr title  "packets sent, vector(packetBytes)"
vector 500  Net802154MultiGateway.host[35].wrappedHost.trafficgen  PRR:vector  ETV
attr interpolationmode  none
attr source  count(sinkRcvdPk)/count(sentPk)
attr title  "PRR, vector"
vector 498  Net802154MultiGateway.host[35].wrappedHost.trafficgen  sinkRcvdPk:vector(packetBytes)  ETV
attr interpolationmode  none
attr source  sinkRcvdPk
attr title  "own packets received by sink, vector(packetBytes)"
vector 258  Net802154MultiGateway.host[18].wrappedHost.trafficgen  sentPk:vector(packetBytes)  ETV
attr interpolationmode  none
attr source  sentPk
attr title  "packets sent, vector(packetBytes)"
vector 262  Net802154MultiGateway.host[18].wrappedHost.trafficgen  PRR:vector  ETV
attr interpolationmode  none
attr source  count(sinkRcvdPk)/count(sentPk)
attr title  "PRR, vector"
vector 260  Net802154MultiGateway.host[18].wrappedHost.trafficgen  sinkRcvdPk:vector(packetBytes)  ETV
attr interpolationmode  none
attr source  sinkRcvdPk
attr title  "own packets received by sink, vector(packetBytes)"
vector 538  Net802154MultiGateway.host[38].wrappedHost.trafficgen  sentPk:vector(packetBytes)  ETV
attr interpolationmode  none
attr source  sentPk
attr title  "packets sent, vector(packetBytes)"
vector 542  Net802154MultiGateway.host[38].wrappedHost.trafficgen  PRR:vector  ETV
attr interpolationmode  none
attr source  count(sinkRcvdPk)/count(sentPk)
attr title  "PRR, vector"
vector 540  Net802154MultiGateway.host[38].wrappedHost.trafficgen  sinkRcvdPk:vector(packetBytes)  ETV
attr interpolationmode  none
attr source  sinkRcvdPk
attr title  "own packets received by sink, vector(packetBytes)"
vector 314  Net802154MultiGateway.host[22].wrappedHost.trafficgen  sentPk:vector(packetBytes)  ETV
attr interpolationmode  none
attr source  sentPk
attr title  "packets sent, vector(packetBytes)"
vector 318  Net802154MultiGateway.host[22].wrappedHost.trafficgen  PRR:vector  ETV
attr interpolationmode  none
attr source  count(sinkRcvdPk)/count(sentPk)
attr title  "PRR, vector"
vector 316  Net802154MultiGateway.host[22].wrappedHost.trafficgen  sinkRcvdPk:vector(packetBytes)  ETV
attr interpolationmode  none
attr source  sinkRcvdPk
attr title  "own packets received by sink, vector(packetBytes)"
vector 20  Net802154MultiGateway.host[1].wrappedHost.trafficgen  sentPk:vector(packetBytes)  ETV
attr interpolationmode  none
attr source  sentPk
attr title  "packets sent, vector(packetBytes)"
vector 24  Net802154MultiGateway.host[1].wrappedHost.trafficgen  PRR:vector  ETV
attr interpolationmode  none
attr source  count(sinkRcvdPk)/count(sentPk)
attr title  "PRR, vector"
vector 22  Net802154MultiGateway.host[1].wrappedHost.trafficgen  sinkRcvdPk:vector(packetBytes)  ETV
attr interpolationmode  none
attr source  sinkRcvdPk
attr title  "own packets received by sink, vector(packetBytes)"
vector 216  Net802154MultiGateway.host[15].wrappedHost.trafficgen  sentPk:vector(packetBytes)  ETV
attr interpolationmode  none
attr source  sentPk
attr title  "packets sent, vector(packetBytes)"
vector 220  Net802154MultiGateway.host[15].wrappedHost.trafficgen  PRR:vector  ETV
attr interpolationmode  none
attr source  count(sinkRcvdPk)/count(sentPk)
attr title  "PRR, vector"
vector 218  Net802154MultiGateway.host[15].wrappedHost.trafficgen  sinkRcvdPk:vector(packetBytes)  ETV
attr interpolationmode  none
attr source  sinkRcvdPk
attr title  "own packets received by sink, vector(packetBytes)"
vector 608  Net802154MultiGateway.host[43].wrappedHost.trafficgen  sentPk:vector(packetBytes)  ETV
attr interpolationmode  none
attr source  sentPk
attr title  "packets sent, vector(packetBytes)"
vector 612  Net802154MultiGateway.host[43].wrappedHost.trafficgen  PRR:vector  ETV
attr interpolationmode  none
attr source  count(sinkRcvdPk)/count(sentPk)
attr title  "PRR, vector"
vector 610  Net802154MultiGateway.host[43].wrappedHost.trafficgen  sinkRcvdPk:vector(packetBytes)  ETV
attr interpolationmode  none
attr source  sinkRcvdPk
attr title  "own packets received by sink, vector(packetBytes)"
vector 426  Net802154MultiGateway.host[30].wrappedHost.trafficgen  sentPk:vector(packetBytes)  ETV
attr interpolationmode  none
attr source  sentPk
attr title  "packets sent, vector(packetBytes)"
vector 430  Net802154MultiGateway.host[30].wrappedHost.trafficgen  PRR:vector  ETV
attr interpolationmode  none
attr source  count(sinkRcvdPk)/count(sentPk)
attr title  "PRR, vector"
vector 428  Net802154MultiGateway.host[30].wrappedHost.trafficgen  sinkRcvdPk:vector(packetBytes)  ETV
attr interpolationmode  none
attr source  sinkRcvdPk
attr title  "own packets received by sink, vector(packetBytes)"
vector 384  Net802154MultiGateway.host[27].wrappedHost.trafficgen  sentPk:vector(packetBytes)  ETV
attr interpolationmode  none
attr source  sentPk
attr title  "packets sent, vector(packetBytes)"
vector 388  Net802154MultiGateway.host[27].wrappedHost.trafficgen  PRR:vector  ETV
attr interpolationmode  none
attr source  count(sinkRcvdPk)/count(sentPk)
attr title  "PRR, vector"
vector 386  Net802154MultiGateway.host[27].wrappedHost.trafficgen  sinkRcvdPk:vector(packetBytes)  ETV
attr interpolationmode  none
attr source  sinkRcvdPk
attr title  "own packets received by sink, vector(packetBytes)"
vector 244  Net802154MultiGateway.host[17].wrappedHost.trafficgen  sentPk:vector(packetBytes)  ETV
attr interpolationmode  none
attr source  sentPk
attr title  "packets sent, vector(packetBytes)"
vector 248  Net802154MultiGateway.host[17].wrappedHost.trafficgen  PRR:vector  ETV
attr interpolationmode  none
attr source  count(sinkRcvdPk)/count(sentPk)
attr title  "PRR, vector"
vector 246  Net802154MultiGateway.host[17].wrappedHost.trafficgen  sinkRcvdPk:vector(packetBytes)  ETV
attr interpolationmode  none
attr source  sinkRcvdPk
attr title  "own packets received by sink, vector(packetBytes)"
vector 720  Net802154MultiGateway.host[51].wrappedHost.trafficgen  sentPk:vector(packetBytes)  ETV
attr interpolationmode  none
attr source  sentPk
attr title  "packets sent, vector(packetBytes)"
vector 724  Net802154MultiGateway.host[51].wrappedHost.trafficgen  PRR:vector  ETV
attr interpolationmode  none
attr source  count(sinkRcvdPk)/count(sentPk)
attr title  "PRR, vector"
vector 722  Net802154MultiGateway.host[51].wrappedHost.trafficgen  sinkRcvdPk:vector(packetBytes)  ETV
attr interpolationmode  none
attr source  sinkRcvdPk
attr title  "own packets received by sink, vector(packetBytes)"
vector 104  Net802154MultiGateway.host[7].wrappedHost.trafficgen  sentPk:vector(packetBytes)  ETV
attr interpolationmode  none
attr source  sentPk
attr title  "packets sent, vector(packetBytes)"
vector 108  Net802154MultiGateway.host[7].wrappedHost.trafficgen  PRR:vector  ETV
attr interpolationmode  none
attr source  count(sinkRcvdPk)/count(sentPk)
attr title  "PRR, vector"
vector 106  Net802154MultiGateway.host[7].wrappedHost.trafficgen  sinkRcvdPk:vector(packetBytes)  ETV
attr interpolationmode  none
attr source  sinkRcvdPk
attr title  "own packets received by sink, vector(packetBytes)"
vector 776  Net802154MultiGateway.host[55].wrappedHost.trafficgen  sentPk:vector(packetBytes)  ETV
attr interpolationmode  none
attr source  sentPk
attr title  "packets sent, vector(packetBytes)"
vector 780  Net802154MultiGateway.host[55].wrappedHost.trafficgen  PRR:vector  ETV
attr interpolationmode  none
attr source  count(sinkRcvdPk)/count(sentPk)
attr title  "PRR, vector"
vector 762  Net802154MultiGateway.host[54].wrappedHost.trafficgen  sentPk:vector(packetBytes)  ETV
attr interpolationmode  none
attr source  sentPk
attr title  "packets sent, vector(packetBytes)"
vector 766  Net802154MultiGateway.host[54].wrappedHost.trafficgen  PRR:vector  ETV
attr interpolationmode  none
attr source  count(sinkRcvdPk)/count(sentPk)
attr title  "PRR, vector"
vector 328  Net802154MultiGateway.host[23].wrappedHost.trafficgen  sentPk:vector(packetBytes)  ETV
attr interpolationmode  none
attr source  sentPk
attr title  "packets sent, vector(packetBytes)"
vector 332  Net802154MultiGateway.host[23].wrappedHost.trafficgen  PRR:vector  ETV
attr interpolationmode  none
attr source  count(sinkRcvdPk)/count(sentPk)
attr title  "PRR, vector"
vector 482  Net802154MultiGateway.host[34].wrappedHost.trafficgen  sentPk:vector(packetBytes)  ETV
attr interpolationmode  none
attr source  sentPk
attr title  "packets sent, vector(packetBytes)"
vector 486  Net802154MultiGateway.host[34].wrappedHost.trafficgen  PRR:vector  ETV
attr interpolationmode  none
attr source  count(sinkRcvdPk)/count(sentPk)
attr title  "PRR, vector"
vector 132  Net802154MultiGateway.host[9].wrappedHost.trafficgen  sentPk:vector(packetBytes)  ETV
attr interpolationmode  none
attr source  sentPk
attr title  "packets sent, vector(packetBytes)"
vector 136  Net802154MultiGateway.host[9].wrappedHost.trafficgen  PRR:vector  ETV
attr interpolationmode  none
attr source  count(sinkRcvdPk)/count(sentPk)
attr title  "PRR, vector"
vector 330  Net802154MultiGateway.host[23].wrappedHost.trafficgen  sinkRcvdPk:vector(packetBytes)  ETV
attr interpolationmode  none
attr source  sinkRcvdPk
attr title  "own packets received by sink, vector(packetBytes)"
vector 484  Net802154MultiGateway.host[34].wrappedHost.trafficgen  sinkRcvdPk:vector(packetBytes)  ETV
attr interpolationmode  none
attr source  sinkRcvdPk
attr title  "own packets received by sink, vector(packetBytes)"
vector 134  Net802154MultiGateway.host[9].wrappedHost.trafficgen  sinkRcvdPk:vector(packetBytes)  ETV
attr interpolationmode  none
attr source  sinkRcvdPk
attr title  "own packets received by sink, vector(packetBytes)"
vector 778  Net802154MultiGateway.host[55].wrappedHost.trafficgen  sinkRcvdPk:vector(packetBytes)  ETV
attr interpolationmode  none
attr source  sinkRcvdPk
attr title  "own packets received by sink, vector(packetBytes)"
vector 764  Net802154MultiGateway.host[54].wrappedHost.trafficgen  sinkRcvdPk:vector(packetBytes)  ETV
attr interpolationmode  none
attr source  sinkRcvdPk
attr title  "own packets received by sink, vector(packetBytes)"
vector 356  Net802154MultiGateway.host[25].wrappedHost.trafficgen  sentPk:vector(packetBytes)  ETV
attr interpolationmode  none
attr source  sentPk
attr title  "packets sent, vector(packetBytes)"
vector 360  Net802154MultiGateway.host[25].wrappedHost.trafficgen  PRR:vector  ETV
attr interpolationmode  none
attr source  count(sinkRcvdPk)/count(sentPk)
attr title  "PRR, vector"
vector 358  Net802154MultiGateway.host[25].wrappedHost.trafficgen  sinkRcvdPk:vector(packetBytes)  ETV
attr interpolationmode  none
attr source  sinkRcvdPk
attr title  "own packets received by sink, vector(packetBytes)"
vector 552  Net802154MultiGateway.host[39].wrappedHost.trafficgen  sentPk:vector(packetBytes)  ETV
attr interpolationmode  none
attr source  sentPk
attr title  "packets sent, vector(packetBytes)"
vector 556  Net802154MultiGateway.host[39].wrappedHost.trafficgen  PRR:vector  ETV
attr interpolationmode  none
attr source  count(sinkRcvdPk)/count(sentPk)
attr title  "PRR, vector"
vector 202  Net802154MultiGateway.host[14].wrappedHost.trafficgen  sentPk:vector(packetBytes)  ETV
attr interpolationmode  none
attr source  sentPk
attr title  "packets sent, vector(packetBytes)"
vector 206  Net802154MultiGateway.host[14].wrappedHost.trafficgen  PRR:vector  ETV
attr interpolationmode  none
attr source  count(sinkRcvdPk)/count(sentPk)
attr title  "PRR, vector"
vector 204  Net802154MultiGateway.host[14].wrappedHost.trafficgen  sinkRcvdPk:vector(packetBytes)  ETV
attr interpolationmode  none
attr source  sinkRcvdPk
attr title  "own packets received by sink, vector(packetBytes)"
vector 554  Net802154MultiGateway.host[39].wrappedHost.trafficgen  sinkRcvdPk:vector(packetBytes)  ETV
attr interpolationmode  none
attr source  sinkRcvdPk
attr title  "own packets received by sink, vector(packetBytes)"
vector 34  Net802154MultiGateway.host[2].wrappedHost.trafficgen  sentPk:vector(packetBytes)  ETV
attr interpolationmode  none
attr source  sentPk
attr title  "packets sent, vector(packetBytes)"
vector 38  Net802154MultiGateway.host[2].wrappedHost.trafficgen  PRR:vector  ETV
attr interpolationmode  none
attr source  count(sinkRcvdPk)/count(sentPk)
attr title  "PRR, vector"
vector 36  Net802154MultiGateway.host[2].wrappedHost.trafficgen  sinkRcvdPk:vector(packetBytes)  ETV
attr interpolationmode  none
attr source  sinkRcvdPk
attr title  "own packets received by sink, vector(packetBytes)"
vector 580  Net802154MultiGateway.host[41].wrappedHost.trafficgen  sentPk:vector(packetBytes)  ETV
attr interpolationmode  none
attr source  sentPk
attr title  "packets sent, vector(packetBytes)"
vector 584  Net802154MultiGateway.host[41].wrappedHost.trafficgen  PRR:vector  ETV
attr interpolationmode  none
attr source  count(sinkRcvdPk)/count(sentPk)
attr title  "PRR, vector"
vector 524  Net802154MultiGateway.host[37].wrappedHost.trafficgen  sentPk:vector(packetBytes)  ETV
attr interpolationmode  none
attr source  sentPk
attr title  "packets sent, vector(packetBytes)"
vector 528  Net802154MultiGateway.host[37].wrappedHost.trafficgen  PRR:vector  ETV
attr interpolationmode  none
attr source  count(sinkRcvdPk)/count(sentPk)
attr title  "PRR, vector"
vector 582  Net802154MultiGateway.host[41].wrappedHost.trafficgen  sinkRcvdPk:vector(packetBytes)  ETV
attr interpolationmode  none
attr source  sinkRcvdPk
attr title  "own packets received by sink, vector(packetBytes)"
vector 526  Net802154MultiGateway.host[37].wrappedHost.trafficgen  sinkRcvdPk:vector(packetBytes)  ETV
attr interpolationmode  none
attr source  sinkRcvdPk
attr title  "own packets received by sink, vector(packetBytes)"
vector 48  Net802154MultiGateway.host[3].wrappedHost.trafficgen  sentPk:vector(packetBytes)  ETV
attr interpolationmode  none
attr source  sentPk
attr title  "packets sent, vector(packetBytes)"
vector 52  Net802154MultiGateway.host[3].wrappedHost.trafficgen  PRR:vector  ETV
attr interpolationmode  none
attr source  count(sinkRcvdPk)/count(sentPk)
attr title  "PRR, vector"
vector 50  Net802154MultiGateway.host[3].wrappedHost.trafficgen  sinkRcvdPk:vector(packetBytes)  ETV
attr interpolationmode  none
attr source  sinkRcvdPk
attr title  "own packets received by sink, vector(packetBytes)"
vector 118  Net802154MultiGateway.host[8].wrappedHost.trafficgen  sentPk:vector(packetBytes)  ETV
attr interpolationmode  none
attr source  sentPk
attr title  "packets sent, vector(packetBytes)"
vector 122  Net802154MultiGateway.host[8].wrappedHost.trafficgen  PRR:vector  ETV
attr interpolationmode  none
attr source  count(sinkRcvdPk)/count(sentPk)
attr title  "PRR, vector"
vector 120  Net802154MultiGateway.host[8].wrappedHost.trafficgen  sinkRcvdPk:vector(packetBytes)  ETV
attr interpolationmode  none
attr source  sinkRcvdPk
attr title  "own packets received by sink, vector(packetBytes)"
vector 342  Net802154MultiGateway.host[24].wrappedHost.trafficgen  sentPk:vector(packetBytes)  ETV
attr interpolationmode  none
attr source  sentPk
attr title  "packets sent, vector(packetBytes)"
vector 346  Net802154MultiGateway.host[24].wrappedHost.trafficgen  PRR:vector  ETV
attr interpolationmode  none
attr source  count(sinkRcvdPk)/count(sentPk)
attr title  "PRR, vector"
vector 344  Net802154MultiGateway.host[24].wrappedHost.trafficgen  sinkRcvdPk:vector(packetBytes)  ETV
attr interpolationmode  none
attr source  sinkRcvdPk
attr title  "own packets received by sink, vector(packetBytes)"
vector 188  Net802154MultiGateway.host[13].wrappedHost.trafficgen  sentPk:vector(packetBytes)  ETV
attr interpolationmode  none
attr source  sentPk
attr title  "packets sent, vector(packetBytes)"
vector 192  Net802154MultiGateway.host[13].wrappedHost.trafficgen  PRR:vector  ETV
attr interpolationmode  none
attr source  count(sinkRcvdPk)/count(sentPk)
attr title  "PRR, vector"
vector 190  Net802154MultiGateway.host[13].wrappedHost.trafficgen  sinkRcvdPk:vector(packetBytes)  ETV
attr interpolationmode  none
attr source  sinkRcvdPk
attr title  "own packets received by sink, vector(packetBytes)"
vector 734  Net802154MultiGateway.host[52].wrappedHost.trafficgen  sentPk:vector(packetBytes)  ETV
attr interpolationmode  none
attr source  sentPk
attr title  "packets sent, vector(packetBytes)"
vector 738  Net802154MultiGateway.host[52].wrappedHost.trafficgen  PRR:vector  ETV
attr interpolationmode  none
attr source  count(sinkRcvdPk)/count(sentPk)
attr title  "PRR, vector"
vector 736  Net802154MultiGateway.host[52].wrappedHost.trafficgen  sinkRcvdPk:vector(packetBytes)  ETV
attr interpolationmode  none
attr source  sinkRcvdPk
attr title  "own packets received by sink, vector(packetBytes)"
vector 510  Net802154MultiGateway.host[36].wrappedHost.trafficgen  sentPk:vector(packetBytes)  ETV
attr interpolationmode  none
attr source  sentPk
attr title  "packets sent, vector(packetBytes)"
vector 514  Net802154MultiGateway.host[36].wrappedHost.trafficgen  PRR:vector  ETV
attr interpolationmode  none
attr source  count(sinkRcvdPk)/count(sentPk)
attr title  "PRR, vector"
vector 512  Net802154MultiGateway.host[36].wrappedHost.trafficgen  sinkRcvdPk:vector(packetBytes)  ETV
attr interpolationmode  none
attr source  sinkRcvdPk
attr title  "own packets received by sink, vector(packetBytes)"
vector 286  Net802154MultiGateway.host[20].wrappedHost.trafficgen  sentPk:vector(packetBytes)  ETV
attr interpolationmode  none
attr source  sentPk
attr title  "packets sent, vector(packetBytes)"
vector 290  Net802154MultiGateway.host[20].wrappedHost.trafficgen  PRR:vector  ETV
attr interpolationmode  none
attr source  count(sinkRcvdPk)/count(sentPk)
attr title  "PRR, vector"
vector 288  Net802154MultiGateway.host[20].wrappedHost.trafficgen  sinkRcvdPk:vector(packetBytes)  ETV
attr interpolationmode  none
attr source  sinkRcvdPk
attr title  "own packets received by sink, vector(packetBytes)"
vector 636  Net802154MultiGateway.host[45].wrappedHost.trafficgen  sentPk:vector(packetBytes)  ETV
attr interpolationmode  none
attr source  sentPk
attr title  "packets sent, vector(packetBytes)"
vector 640  Net802154MultiGateway.host[45].wrappedHost.trafficgen  PRR:vector  ETV
attr interpolationmode  none
attr source  count(sinkRcvdPk)/count(sentPk)
attr title  "PRR, vector"
vector 454  Net802154MultiGateway.host[32].wrappedHost.trafficgen  sentPk:vector(packetBytes)  ETV
attr interpolationmode  none
attr source  sentPk
attr title  "packets sent, vector(packetBytes)"
vector 458  Net802154MultiGateway.host[32].wrappedHost.trafficgen  PRR:vector  ETV
attr interpolationmode  none
attr source  count(sinkRcvdPk)/count(sentPk)
attr title  "PRR, vector"
vector 456  Net802154MultiGateway.host[32].wrappedHost.trafficgen  sinkRcvdPk:vector(packetBytes)  ETV
attr interpolationmode  none
attr source  sinkRcvdPk
attr title  "own packets received by sink, vector(packetBytes)"
vector 638  Net802154MultiGateway.host[45].wrappedHost.trafficgen  sinkRcvdPk:vector(packetBytes)  ETV
attr interpolationmode  none
attr source  sinkRcvdPk
attr title  "own packets received by sink, vector(packetBytes)"
vector 650  Net802154MultiGateway.host[46].wrappedHost.trafficgen  sentPk:vector(packetBytes)  ETV
attr interpolationmode  none
attr source  sentPk
attr title  "packets sent, vector(packetBytes)"
vector 654  Net802154MultiGateway.host[46].wrappedHost.trafficgen  PRR:vector  ETV
attr interpolationmode  none
attr source  count(sinkRcvdPk)/count(sentPk)
attr title  "PRR, vector"
vector 652  Net802154MultiGateway.host[46].wrappedHost.trafficgen  sinkRcvdPk:vector(packetBytes)  ETV
attr interpolationmode  none
attr source  sinkRcvdPk
attr title  "own packets received by sink, vector(packetBytes)"
vector 622  Net802154MultiGateway.host[44].wrappedHost.trafficgen  sentPk:vector(packetBytes)  ETV
attr interpolationmode  none
attr source  sentPk
attr title  "packets sent, vector(packetBytes)"
vector 626  Net802154MultiGateway.host[44].wrappedHost.trafficgen  PRR:vector  ETV
attr interpolationmode  none
attr source  count(sinkRcvdPk)/count(sentPk)
attr title  "PRR, vector"
vector 624  Net802154MultiGateway.host[44].wrappedHost.trafficgen  sinkRcvdPk:vector(packetBytes)  ETV
attr interpolationmode  none
attr source  sinkRcvdPk
attr title  "own packets received by sink, vector(packetBytes)"
vector 692  Net802154MultiGateway.host[49].wrappedHost.trafficgen  sentPk:vector(packetBytes)  ETV
attr interpolationmode  none
attr source  sentPk
attr title  "packets sent, vector(packetBytes)"
vector 696  Net802154MultiGateway.host[49].wrappedHost.trafficgen  PRR:vector  ETV
attr interpolationmode  none
attr source  count(sinkRcvdPk)/count(sentPk)
attr title  "PRR, vector"
vector 694  Net802154MultiGateway.host[49].wrappedHost.trafficgen  sinkRcvdPk:vector(packetBytes)  ETV
attr interpolationmode  none
attr source  sinkRcvdPk
attr title  "own packets received by sink, vector(packetBytes)"
vector 860  Net802154MultiGateway.host[61].wrappedHost.trafficgen  sentPk:vector(packetBytes)  ETV
attr interpolationmode  none
attr source  sentPk
attr title  "packets sent, vector(packetBytes)"
vector 864  Net802154MultiGateway.host[61].wrappedHost.trafficgen  PRR:vector  ETV
attr interpolationmode  none
attr source  count(sinkRcvdPk)/count(sentPk)
attr title  "PRR, vector"
vector 862  Net802154MultiGateway.host[61].wrappedHost.trafficgen  sinkRcvdPk:vector(packetBytes)  ETV
attr interpolationmode  none
attr source  sinkRcvdPk
attr title  "own packets received by sink, vector(packetBytes)"
5	52096 180746 905805 2435826 161.024647454398 427.906947148847 6063 76 76 460788 35019888
7	232842 253083 905805 2435826 161.024647454398 427.906947148847 6063 0.004000333564 0.078663892874 114.93771618208 2.5706803543898
9	485925 5913 1 2521185 1 441.953804289823 204 76 76 15504 1178304
20	491838 3079 915681 2095827 162.509990996855 370.670475303377 100 76 76 7600 577600
22	494917 3080 915707 2095854 162.515911330419 370.676395636941 100 76 76 7600 577600
23	497997 3191 2 2510148 1 439.799379741984 109 76 76 8284 629584
24	501188 7287 915681 2095854 162.509990996855 370.676395636941 200 0.5 1 -nan -nan
34	508475 3083 924224 2211241 164.009831739112 390.859394906006 100 76 76 7600 577600
36	511558 3084 924250 2211267 164.015112072676 390.86467523957 100 76 76 7600 577600
37	514642 2734 3 2518947 1 441.390311945119 94 76 76 7144 542944
38	517376 7295 924224 2211267 164.009831739112 390.86467523957 200 0.5 1 -nan -nan
48	524671 3086 928874 2059849 164.682655792513 363.323941539883 100 76 76 7600 577600
50	527757 3053 928900 2059875 164.688256126077 363.330181873447 99 76 76 7524 571824
51	530810 3409 4 2517087 1 441.225241048052 115 76 76 8740 664240
52	534219 8497 928874 2059875 164.682655792513 363.330181873447 199 0.5 1 -nan -nan
62	542716 3078 906049 1957071 161.073452977524 344.256058719861 100 76 76 7600 577600
64	545794 3076 906167 1957173 161.077453311088 344.267819053425 100 76 76 7600 577600
65	548870 3575 5 2519369 1 441.584104978932 121 76 76 9196 698896
66	552445 7282 906049 1957173 161.073452977524 344.267819053425 200 0.5 1 -nan -nan
76	559727 3082 910916 1960183 161.819155967245 344.742477440451 100 76 76 7600 577600
78	562809 3052 910942 1960209 161.824756300809 344.746477774015 99 76 76 7524 571824
79	565861 3338 6 2498053 1 437.437599130188 113 76 76 8588 652688
80	569199 8415 910916 1960209 161.819155967245 344.746477774015 199 0.5 1 -nan -nan
90	577614 3074 910976 2142419 161.830812727721 378.689116744325 100 76 76 7600 577600
92	580688 3076 911004 2142501 161.835773061285 378.696057368577 100 76 76 7600 577600
93	583764 3500 7 2523423 1 442.608852435237 120 76 76 9120 693120
94	587264 7293 910976 2142501 161.830812727721 378.696057368577 200 0.5 1 -nan -nan
104	594557 3182 921161 2203109 163.574255907134 389.324967844838 100 76 76 7600 577600
106	597739 3185 921252 2203272 163.584720574262 389.340952511966 100 76 76 7600 577600
107	600924 3236 8 2491569 1 436.478032878552 107 76 76 8132 618032
108	604160 7524 921161 2203272 163.574255907134 389.340952511966 200 0.5 1 -nan -nan
118	611684 3189 929498 2141489 164.838652687972 378.470434738701 100 76 76 7600 577600
120	614873 3183 929587 2141754 164.849117434927 378.482819485656 100 76 76 7600 577600
121	618056 3373 9 2487664 1 436.06003254065 111 76 76 8436 641136
122	621429 7515 929498 2141754 164.838652687972 378.482819485656 200 0.5 1 -nan -nan
132	628944 3179 921871 2110003 163.639601251135 372.864395181209 100 76 76 7600 577600
134	632123 3176 922568 2110095 163.668769918263 372.876779848337 100 76 76 7600 577600
135	635299 2598 10 2512518 1 440.187679049411 86 76 76 6536 496736
136	637897 7483 921871 2110095 163.639601251135 372.876779848337 200 0.5 1 -nan -nan
146	645380 3181 910185 2214257 161.723829874637 391.577211883893 100 76 76 7600 577600
148	648561 3185 910380 2214387 161.734614621592 391.586396630848 100 76 76 7600 577600
149	651746 3335 11 2524119 1 442.8076630596 110 76 76 8360 635360
150	655081 7512 910185 2214387 161.723829874637 391.586396630848 200 0.5 1 -nan -nan
160	662593 3183 908199 2196053 161.354370677395 387.8987754322 100 76 76 7600 577600
162	665776 3153 908439 2196146 161.370675344523 387.907320099328 99 76 76 7524 571824
163	668929 3676 12 2512646 1 440.250838967866 121 76 76 9196 698896
164	672605 7846 908199 2196146 161.354370677395 387.907320099328 199 0.5 1 -nan -nan
174	680451 3181 911549 2000174 161.968477864059 352.226286797367 100 76 76 7600 577600
176	683632 3180 911698 2000355 161.977982611014 352.238351544322 100 76 76 7600 577600
177	686812 4010 13 2522788 1 442.499559102354 131 76 76 9956 756656
178	690822 7489 911549 2000355 161.968477864059 352.238351544322 200 0.5 1 -nan -nan
188	698311 3189 931001 2213548 165.259454669002 391.388781660363 100 76 76 7600 577600
190	701500 3154 931297 2213643 165.28875133613 391.400846327491 99 76 76 7524 571824
191	704654 3868 14 2517846 1 441.287881344962 128 76 76 9728 739328
192	708522 8143 931001 2213643 165.259454669002 391.400846327491 199 0.5 1 -nan -nan
202	716665 3175 923687 2056648 163.899713554189 362.55492635628 100 76 76 7600 577600
204	719840 3184 923846 2056737 163.910498301144 362.566031103235 100 76 76 7600 577600
205	723024 3778 15 2520837 1 441.844498737479 124 76 76 9424 716224
206	726802 7487 923687 2056737 163.899713554189 362.566031103235 200 0.5 1 -nan -nan
216	734289 3187 916669 2039255 162.743612108269 359.598406695298 100 76 76 7600 577600
218	737476 3151 916825 2039426 162.753756775397 359.608551362426 99 76 76 7524 571824
219	740627 3686 16 2510021 1 439.68878640711 121 76 76 9196 698896
220	744313 8353 916669 2039426 162.743612108269 359.608551362426 199 0.5 1 -nan -nan
230	752666 3177 908734 2140166 161.510314697551 378.198870301095 100 76 76 7600 577600
232	755843 3184 908823 2140255 161.523019444506 378.20901504805 100 76 76 7600 577600
233	759027 3562 17 2520727 1 441.835092960136 117 76 76 8892 675792
234	762589 7489 908734 2140255 161.510314697551 378.20901504805 200 0.5 1 -nan -nan
244	770078 3179 919149 2253308 163.24247019333 398.422493842734 100 76 76 7600 577600
246	773257 3181 919365 2253501 163.254534860458 398.434238509862 100 76 76 7600 577600
247	776438 2938 18 2519009 1 441.433242098469 97 76 76 7372 560272
248	779376 7488 919149 2253501 163.24247019333 398.434238509862 200 0.5 1 -nan -nan
258	786864 3182 913506 2435734 162.166313140058 427.897442401892 100 76 76 7600 577600
260	790046 3189 913651 2435826 162.180105887013 427.906947148847 100 76 76 7600 577600
261	793235 3061 19 2503756 1 438.857724692083 102 76 76 7752 589152
262	796296 7499 913506 2435826 162.166313140058 427.906947148847 200 0.5 1 -nan -nan
272	803795 3183 911906 2185207 162.017832314215 385.729165535537 100 76 76 7600 577600
274	806978 3178 912331 2185409 162.044841314907 385.746094536229 100 76 76 7600 577600
275	810156 3431 20 2516465 1 441.125431101874 113 76 76 8588 652688
276	813587 7489 911906 2185409 162.017832314215 385.746094536229 200 0.5 1 -nan -nan
286	821076 3178 934684 2043407 165.911157129298 360.431908437038 100 76 76 7600 577600
288	824254 3174 935044 2043557 165.93168623895 360.45075754669 100 76 76 7600 577600
289	827428 3401 21 2511784 1 440.001640716447 112 76 76 8512 646912
290	830829 7510 934684 2043557 165.911157129298 360.45075754669 200 0.5 1 -nan -nan
300	838339 3183 909500 2026270 161.674627791287 356.935990295284 100 76 76 7600 577600
302	841522 3143 909723 2026418 161.692836900939 356.951959404936 99 76 76 7524 571824
303	844665 3631 22 2459206 1 431.275366629227 119 76 76 9044 687344
304	848296 8218 909500 2026418 161.674627791287 356.951959404936 199 0.5 1 -nan -nan
314	856514 3178 914642 2049503 162.351750255012 361.441689503669 100 76 76 7600 577600
316	859692 3146 914790 2049907 162.367719255704 361.464906504361 99 76 76 7524 571824
317	862838 3562 23 2524350 1 442.824995990716 117 76 76 8892 675792
318	866400 7804 914642 2049907 162.351750255012 361.464906504361 199 0.5 1 -nan -nan
328	874204 3181 921691 2342866 163.632374877879 412.932942223437 100 76 76 7600 577600
330	877385 3146 922068 2343124 163.648023987531 412.950191333089 99 76 76 7524 571824
331	880531 2993 24 2514146 1 440.560246618162 99 76 76 7524 571824
332	883524 7747 921691 2343124 163.632374877879 412.950191333089 199 0.5 1 -nan -nan
342	891271 3188 929635 2037509 164.862855684996 359.277640211308 100 76 76 7600 577600
344	894459 3181 929936 2037654 164.879784794648 359.29456932096 100 76 76 7600 577600
345	897640 3671 25 2507432 1 439.399635891576 121 76 76 9196 698896
346	901311 7497 929635 2037654 164.862855684996 359.29456932096 200 0.5 1 -nan -nan
356	908808 3182 923092 2151169 163.768458668728 380.309435997217 100 76 76 7600 577600
358	911990 3150 923243 2151322 163.78666766942 380.326044997909 99 76 76 7524 571824
359	915140 2969 26 2516326 1 441.110940367746 98 76 76 7448 566048
360	918109 7584 923092 2151322 163.768458668728 380.326044997909 199 0.5 1 -nan -nan
370	925693 3174 907110 2335839 161.152944369658 411.86652902233 100 76 76 7600 577600
372	928867 3182 907472 2336103 161.17019347931 411.881858131982 100 76 76 7600 577600
373	932049 3016 27 2513130 1 440.395388572477 101 76 76 7676 583376
374	935065 7484 907110 2336103 161.152944369658 411.881858131982 200 0.5 1 -nan -nan
384	942549 3185 917883 1896148 162.910694949056 334.040263803337 100 76 76 7600 577600
386	945734 3153 918028 1896630 162.927944058708 334.067272912989 99 76 76 7524 571824
387	948887 4164 28 2517338 1 441.263235077411 136 76 76 10336 785536
388	953051 8517 917883 1896630 162.910694949056 334.067272912989 199 0.5 1 -nan -nan
398	961568 3180 910409 2139368 161.73472093659 378.056171343434 100 76 76 7600 577600
400	964748 3182 910642 2139518 161.752289937282 378.070540344126 100 76 76 7600 577600
401	967930 3543 29 2498179 1 437.531205674965 116 76 76 8816 670016
402	971473 7505 910409 2139518 161.73472093659 378.070540344126 200 0.5 1 -nan -nan
412	978978 3180 905661 2157533 161.009958344746 381.112208692734 100 76 76 7600 577600
414	982158 3154 905805 2157786 161.024647454398 381.130417802386 99 76 76 7524 571824
415	985312 3592 30 2503259 1 438.741953457923 119 76 76 9044 687344
416	988904 8196 905661 2157786 161.009958344746 381.130417802386 199 0.5 1 -nan -nan
426	997100 3184 917697 1838347 162.874648160182 324.563621830812 100 76 76 7600 577600
428	1000284 3180 917843 1838734 162.889657269834 324.586198940464 100 76 76 7600 577600
429	1003464 4351 31 2517147 1 441.23554794165 142 76 76 10792 820192
430	1007815 7522 917697 1838734 162.874648160182 324.586198940464 200 0.5 1 -nan -nan
440	1015337 3182 906923 1931378 161.141659547791 339.916619745083 100 76 76 7600 577600
442	1018519 3153 907204 1931636 161.157948548483 339.932908745775 99 76 76 7524 571824
443	1021672 4675 32 2521971 1 442.167456894706 152 76 76 11552 877952
444	1026347 7617 906923 1931636 161.141659547791 339.932908745775 199 0.5 1 -nan -nan
454	1033964 3187 936679 2276918 166.328048985096 402.108509914253 100 76 76 7600 577600
456	1037151 3184 937033 2277141 166.344018094748 402.122559023905 100 76 76 7600 577600
457	1040335 3276 33 2522962 1 442.56579081097 108 76 76 8208 623808
458	1043611 7499 936679 2277141 166.328048985096 402.122559023905 200 0.5 1 -nan -nan
468	1051110 3178 909571 2143147 161.683835383638 378.879924156873 100 76 76 7600 577600
470	1054288 3183 910151 2143295 161.72228449329 378.895253266525 100 76 76 7600 577600
471	1057471 3707 34 2514331 1 440.581789014761 122 76 76 9272 704672
472	1061178 7489 909571 2143295 161.683835383638 378.895253266525 200 0.5 1 -nan -nan
482	1068667 3184 921705 2028779 163.633977600078 357.537580609441 100 76 76 7600 577600
484	1071851 3179 922201 2029012 163.65610660077 357.559069610133 100 76 76 7600 577600
485	1075030 3585 35 2521445 1 441.989646455739 117 76 76 8892 675792
486	1078615 7506 921705 2029012 163.633977600078 357.559069610133 200 0.5 1 -nan -nan
496	1086121 3186 913024 2132346 162.115097733437 376.752426237074 100 76 76 7600 577600
498	1089307 3191 913177 2132512 162.132986843089 376.769675346726 100 76 76 7600 577600
499	1092498 3790 36 2524048 1 442.799527330267 124 76 76 9424 716224
500	1096288 7523 913024 2132512 162.115097733437 376.769675346726 200 0.5 1 -nan -nan
510	1103811 3186 934259 2327000 165.811988358757 410.298203505548 100 76 76 7600 577600
512	1106997 3119 934456 2327223 165.829237468409 410.3200126152 98 76 76 7448 566048
513	1110116 2962 37 2525293 1 442.890957463934 98 76 76 7448 566048
514	1113078 8025 934259 2327223 165.811988358757 410.3200126152 198 0.5 1 -nan -nan
524	1121103 3184 926946 2154676 164.495630776715 380.735432141296 100 76 76 7600 577600
526	1124287 3145 927322 2154929 164.523584110971 380.755305475552 99 76 76 7524 571824
527	1127432 3681 38 2493059 1 436.653556664042 121 76 76 9196 698896
528	1131113 8642 926946 2154929 164.495630776715 380.755305475552 199 0.5 1 -nan -nan
538	1139755 3179 913766 2012617 162.1930027622 354.16338694094 100 76 76 7600 577600
540	1142934 3147 914023 2012941 162.215116219412 354.182300398152 99 76 76 7524 571824
541	1146081 3721 39 2524677 1 442.85391031181 122 76 76 9272 704672
542	1149802 8188 913766 2012941 162.1930027622 354.182300398152 199 0.5 1 -nan -nan
552	1157990 3182 923639 2104158 163.892300736517 371.839655344608 100 76 76 7600 577600
554	1161172 3147 923951 2104733 163.917614223925 371.877272832016 99 76 76 7524 571824
555	1164319 3188 40 2519491 1 441.649177215036 105 76 76 7980 606480
556	1167507 7869 923639 2104733 163.892300736517 371.877272832016 199 0.5 1 -nan -nan
566	1175376 3179 905958 1979598 161.06790756274 348.303014107657 100 76 76 7600 577600
568	1178555 3147 906357 1979810 161.09130101214 348.326407557057 99 76 76 7524 571824
569	1181702 4147 41 2518293 1 441.334657334209 135 76 76 10260 779760
570	1185849 8069 905958 1979810 161.06790756274 348.326407557057 199 0.5 1 -nan -nan
580	1193918 3181 926564 2034739 164.477558488394 358.648722473696 100 76 76 7600 577600
582	1197099 3181 927078 2034937 164.503959826143 358.671155811445 100 76 76 7600 577600
583	1200280 3603 42 2523485 1 442.627323105403 118 76 76 8968 681568
584	1203883 7505 926564 2034937 164.477558488394 358.671155811445 200 0.5 1 -nan -nan
594	1211388 3176 908960 2090364 161.566209293213 369.497522712492 100 76 76 7600 577600
596	1214564 3178 909410 2090714 161.595442768751 369.53533218803 100 76 76 7600 577600
597	1217742 3534 43 2523719 1 442.658583364807 116 76 76 8816 670016
598	1221276 7512 908960 2090714 161.566209293213 369.53533218803 200 0.5 1 -nan -nan
608	1228788 3179 917237 1972879 162.822685285121 347.281133298781 100 76 76 7600 577600
610	1231967 3142 917657 1973076 162.846718752414 347.303246766074 99 76 76 7524 571824
611	1235109 3286 44 2501669 1 438.423416387152 107 76 76 8132 618032
612	1238395 7513 917237 1973076 162.822685285121 347.303246766074 199 0.5 1 -nan -nan
622	1245908 3185 942088 2174711 167.444363347331 383.819031341176 100 76 76 7600 577600
624	1249093 3186 942280 2175037 167.466476790937 383.839224784782 100 76 76 7600 577600
625	1252279 2850 45 2523050 1 442.572680038365 94 76 76 7144 542944
626	1255129 7514 942088 2175037 167.444363347331 383.839224784782 200 0.5 1 -nan -nan
636	1262643 3181 936668 2136668 166.322644925897 377.473710989044 100 76 76 7600 577600
638	1265824 3152 937233 2136872 166.357894273908 377.493904337055 99 76 76 7524 571824
639	1268976 3058 46 2507812 1 439.420638002637 101 76 76 7676 583376
640	1272034 7754 936668 2136872 166.322644925897 377.493904337055 199 0.5 1 -nan -nan
650	1279788 3179 941126 2113516 167.211326128589 373.64350824907 100 76 76 7600 577600
652	1282967 3155 941554 2113764 167.243519514846 373.665301635327 99 76 76 7524 571824
653	1286122 3505 47 2524491 1 442.839202247683 115 76 76 8740 664240
654	1289627 8211 941126 2113764 167.211326128589 373.665301635327 199 0.5 1 -nan -nan
664	1297838 3182 911040 2222194 161.880893887959 393.243566088887 100 76 76 7600 577600
666	1301020 3143 911238 2222701 161.905247340787 393.279599541715 99 76 76 7524 571824
667	1304163 3449 48 2515010 1 440.719456455432 113 76 76 8588 652688
668	1307612 7727 911040 2222701 161.880893887959 393.279599541715 199 0.5 1 -nan -nan
678	1315339 3179 908460 1955881 161.37120729083 344.059371270021 100 76 76 7600 577600
680	1318518 3145 908669 1956074 161.393640735603 344.078924714794 99 76 76 7524 571824
681	1321663 3876 49 2505374 1 439.207994911488 127 76 76 9652 733552
682	1325539 8479 908460 1956074 161.37120729083 344.078924714794 199 0.5 1 -nan -nan
692	1334018 3185 953757 2335073 169.946187191093 411.77249215957 100 76 76 7600 577600
694	1337203 3146 953964 2335551 169.968300555545 411.801581524022 99 76 76 7524 571824
695	1340349 2994 50 2520488 1 441.800715775068 99 76 76 7524 571824
696	1343343 7463 953757 2335551 169.946187191093 411.801581524022 199 0.5 1 -nan -nan
706	1350806 3178 906406 2217234 161.097386739684 392.065077545683 100 76 76 7600 577600
708	1353984 3118 906664 2217437 161.118860104136 392.088470910135 98 76 76 7448 566048
709	1357102 3143 51 2498631 1 437.570365591652 104 76 76 7904 600704
710	1360245 8705 906406 2217437 161.097386739684 392.088470910135 198 0.5 1 -nan -nan
720	1368950 3181 920374 2138504 163.361936077399 377.949994316713 100 76 76 7600 577600
722	1372131 3174 920566 2138727 163.381489522172 377.970507761486 100 76 76 7600 577600
723	1375305 2761 52 2483975 1 435.387622542801 91 76 76 6916 525616
724	1378066 7513 920374 2138727 163.361936077399 377.970507761486 200 0.5 1 -nan -nan
734	1385579 3179 932078 1907920 165.398162688475 335.934042181709 100 76 76 7600 577600
736	1388758 3151 932279 1908475 165.421236141303 335.958075634537 99 76 76 7524 571824
737	1391909 3910 53 2512202 1 440.083924987036 127 76 76 9652 733552
738	1395819 8440 932078 1908475 165.398162688475 335.958075634537 199 0.5 1 -nan -nan
748	1404259 3179 910017 1993216 161.716219009029 351.280392975602 100 76 76 7600 577600
750	1407438 3147 910502 1993671 161.740892395286 351.306746361859 99 76 76 7524 571824
751	1410585 2747 54 2505364 1 439.205174800561 90 76 76 6840 519840
752	1413332 8311 910017 1993671 161.716219009029 351.306746361859 199 0.5 1 -nan -nan
762	1421643 3183 921599 1998849 163.631120258975 352.130299451492 100 76 76 7600 577600
764	1424826 3178 922974 1999442 163.685889606986 352.163180799503 100 76 76 7600 577600
765	1428004 4225 55 2525290 1 442.890345541622 139 76 76 10564 802864
766	1432229 7518 921599 1999442 163.631120258975 352.163180799503 200 0.5 1 -nan -nan
776	1439747 3183 921590 2122908 163.629123543221 375.18600903043 100 76 76 7600 577600
778	1442930 3147 922762 2123244 163.676180986827 375.207162474036 99 76 76 7524 571824
779	1446077 3595 56 2521039 1 441.936525797752 118 76 76 8968 681568
780	1449672 7810 921590 2123244 163.629123543221 375.207162474036 199 0.5 1 -nan -nan
790	1457482 3179 908093 2089518 161.340099599321 369.303897536084 100 76 76 7600 577600
792	1460661 3115 908361 2089711 161.363173066614 369.324731003377 98 76 76 7448 566048
793	1463776 2878 57 2518422 1 441.34379961364 95 76 76 7220 548720
794	1466654 8411 908093 2089711 161.340099599321 369.324731003377 198 0.5 1 -nan -nan
804	1475065 3184 906577 2135845 161.113206992608 377.362271400668 100 76 76 7600 577600
806	1478249 3183 906887 2136142 161.136920468146 377.385984876206 100 76 76 7600 577600
807	1481432 3187 58 2509250 1 439.597064853735 106 76 76 8056 612256
808	1484619 7495 906577 2136142 161.113206992608 377.385984876206 200 0.5 1 -nan -nan
818	1492114 3175 907610 1924188 161.21973354313 338.747253612133 100 76 76 7600 577600
820	1495289 3053 908038 1924513 161.243446880879 338.769366949882 96 76 76 7296 554496
821	1498342 3248 59 2511092 1 439.95840875529 107 76 76 8132 618032
822	1501590 8536 907610 1924513 161.21973354313 338.769366949882 196 0.5 1 -nan -nan
832	1510126 3187 910680 2139684 161.784400119664 378.130743102602 100 76 76 7600 577600
834	1513313 3187 910878 2140056 161.806193569064 378.152536552002 100 76 76 7600 577600
835	1516500 3959 60 2520208 1 441.745327249312 130 76 76 9880 750880
836	1520459 7502 910680 2140056 161.784400119664 378.152536552002 200 0.5 1 -nan -nan
846	1527961 3188 905844 2055886 161.057690191539 362.420567315794 100 76 76 7600 577600
848	1531149 3153 906426 2056435 161.100747678947 362.456280803202 99 76 76 7524 571824
849	1534302 3088 61 2521691 1 442.021444199569 101 76 76 7676 583376
850	1537390 7836 905844 2056435 161.057690191539 362.456280803202 199 0.5 1 -nan -nan
860	1545226 3186 959518 2146273 170.944485576956 379.576488216881 100 76 76 7600 577600
862	1548412 3150 959716 2146807 170.967239034168 379.602521674093 99 76 76 7524 571824
863	1551562 2544 62 2504664 1 439.068724315003 84 76 76 6384 485184
864	1554106 7786 959518 2146807 170.944485576956 379.602521674093 199 0.5 1 -nan -nan
